
---------- Begin Simulation Statistics ----------
final_tick                                69946536000                       # Number of ticks from beginning of simulation (restored from checkpoints and never reset)
host_inst_rate                                 513569                       # Simulator instruction rate (inst/s)
host_mem_usage                                 681152                       # Number of bytes of host memory used
host_op_rate                                   908788                       # Simulator op (including micro ops) rate (op/s)
host_seconds                                    47.33                       # Real time elapsed on the host
host_tick_rate                             1477774565                       # Simulator tick rate (ticks/s)
sim_freq                                 1000000000000                       # Frequency of simulated ticks
sim_insts                                    24308337                       # Number of instructions simulated
sim_ops                                      43015049                       # Number of ops (including micro ops) simulated
sim_seconds                                  0.069947                       # Number of seconds simulated
sim_ticks                                 69946536000                       # Number of ticks simulated
system.cpu.Branches                           1784668                       # Number of branches fetched
system.cpu.committedInsts                    24308337                       # Number of instructions committed
system.cpu.committedOps                      43015049                       # Number of ops (including micro ops) committed
system.cpu.dtb.rdAccesses                     5153372                       # TLB accesses on read requests
system.cpu.dtb.rdMisses                            17                       # TLB misses on read requests
system.cpu.dtb.wrAccesses                       67138                       # TLB accesses on write requests
system.cpu.dtb.wrMisses                            27                       # TLB misses on write requests
system.cpu.idle_fraction                     0.000000                       # Percentage of idle cycles
system.cpu.itb.rdAccesses                           0                       # TLB accesses on read requests
system.cpu.itb.rdMisses                             0                       # TLB misses on read requests
system.cpu.itb.wrAccesses                    29675467                       # TLB accesses on write requests
system.cpu.itb.wrMisses                            55                       # TLB misses on write requests
system.cpu.not_idle_fraction                 1.000000                       # Percentage of non-idle cycles
system.cpu.numCycles                         69946536                       # number of cpu cycles simulated
system.cpu.numWorkItemsCompleted                    0                       # number of work items this cpu completed
system.cpu.numWorkItemsStarted                      0                       # number of work items this cpu started
system.cpu.num_busy_cycles               69946535.999000                       # Number of busy cycles
system.cpu.num_cc_register_reads              9220062                       # number of times the CC registers were read
system.cpu.num_cc_register_writes            23716768                       # number of times the CC registers were written
system.cpu.num_conditional_control_insts      1772711                       # number of instructions that are conditional controls
system.cpu.num_fp_alu_accesses                  88188                       # Number of float alu accesses
system.cpu.num_fp_insts                         88188                       # number of float instructions
system.cpu.num_fp_register_reads               138104                       # number of times the floating registers were read
system.cpu.num_fp_register_writes               76749                       # number of times the floating registers were written
system.cpu.num_func_calls                        3652                       # number of times a function call or return occured
system.cpu.num_idle_cycles                   0.001000                       # Number of idle cycles
system.cpu.num_int_alu_accesses              42832511                       # Number of integer alu accesses
system.cpu.num_int_insts                     42832511                       # number of integer instructions
system.cpu.num_int_register_reads            84419046                       # number of times the integer registers were read
system.cpu.num_int_register_writes           44342654                       # number of times the integer registers were written
system.cpu.num_load_insts                     5153143                       # Number of load instructions
system.cpu.num_mem_refs                       5220060                       # number of memory refs
system.cpu.num_store_insts                      66917                       # Number of store instructions
system.cpu.num_vec_alu_accesses                     0                       # Number of vector alu accesses
system.cpu.num_vec_insts                            0                       # number of vector instructions
system.cpu.num_vec_register_reads                   0                       # number of times the vector registers were read
system.cpu.num_vec_register_writes                  0                       # number of times the vector registers were written
system.cpu.op_class::No_OpClass                123874      0.29%      0.29% # Class of executed instruction
system.cpu.op_class::IntAlu                  34300725     79.74%     80.03% # Class of executed instruction
system.cpu.op_class::IntMult                  3272661      7.61%     87.64% # Class of executed instruction
system.cpu.op_class::IntDiv                     50585      0.12%     87.75% # Class of executed instruction
system.cpu.op_class::FloatAdd                    8129      0.02%     87.77% # Class of executed instruction
system.cpu.op_class::FloatCmp                       0      0.00%     87.77% # Class of executed instruction
system.cpu.op_class::FloatCvt                       0      0.00%     87.77% # Class of executed instruction
system.cpu.op_class::FloatMult                      0      0.00%     87.77% # Class of executed instruction
system.cpu.op_class::FloatMultAcc                   0      0.00%     87.77% # Class of executed instruction
system.cpu.op_class::FloatDiv                       0      0.00%     87.77% # Class of executed instruction
system.cpu.op_class::FloatMisc                      0      0.00%     87.77% # Class of executed instruction
system.cpu.op_class::FloatSqrt                      0      0.00%     87.77% # Class of executed instruction
system.cpu.op_class::SimdAdd                      374      0.00%     87.77% # Class of executed instruction
system.cpu.op_class::SimdAddAcc                     0      0.00%     87.77% # Class of executed instruction
system.cpu.op_class::SimdAlu                     4064      0.01%     87.78% # Class of executed instruction
system.cpu.op_class::SimdCmp                        0      0.00%     87.78% # Class of executed instruction
system.cpu.op_class::SimdCvt                      128      0.00%     87.78% # Class of executed instruction
system.cpu.op_class::SimdMisc                    5418      0.01%     87.80% # Class of executed instruction
system.cpu.op_class::SimdMult                       0      0.00%     87.80% # Class of executed instruction
system.cpu.op_class::SimdMultAcc                    0      0.00%     87.80% # Class of executed instruction
system.cpu.op_class::SimdShift                    186      0.00%     87.80% # Class of executed instruction
system.cpu.op_class::SimdShiftAcc                   0      0.00%     87.80% # Class of executed instruction
system.cpu.op_class::SimdDiv                        0      0.00%     87.80% # Class of executed instruction
system.cpu.op_class::SimdSqrt                       0      0.00%     87.80% # Class of executed instruction
system.cpu.op_class::SimdFloatAdd               12512      0.03%     87.82% # Class of executed instruction
system.cpu.op_class::SimdFloatAlu                   0      0.00%     87.82% # Class of executed instruction
system.cpu.op_class::SimdFloatCmp                   0      0.00%     87.82% # Class of executed instruction
system.cpu.op_class::SimdFloatCvt                4945      0.01%     87.84% # Class of executed instruction
system.cpu.op_class::SimdFloatDiv                 738      0.00%     87.84% # Class of executed instruction
system.cpu.op_class::SimdFloatMisc                  0      0.00%     87.84% # Class of executed instruction
system.cpu.op_class::SimdFloatMult              11557      0.03%     87.86% # Class of executed instruction
system.cpu.op_class::SimdFloatMultAcc               0      0.00%     87.86% # Class of executed instruction
system.cpu.op_class::SimdFloatSqrt                  0      0.00%     87.86% # Class of executed instruction
system.cpu.op_class::SimdReduceAdd                  0      0.00%     87.86% # Class of executed instruction
system.cpu.op_class::SimdReduceAlu                  0      0.00%     87.86% # Class of executed instruction
system.cpu.op_class::SimdReduceCmp                  0      0.00%     87.86% # Class of executed instruction
system.cpu.op_class::SimdFloatReduceAdd             0      0.00%     87.86% # Class of executed instruction
system.cpu.op_class::SimdFloatReduceCmp             0      0.00%     87.86% # Class of executed instruction
system.cpu.op_class::SimdAes                        0      0.00%     87.86% # Class of executed instruction
system.cpu.op_class::SimdAesMix                     0      0.00%     87.86% # Class of executed instruction
system.cpu.op_class::SimdSha1Hash                   0      0.00%     87.86% # Class of executed instruction
system.cpu.op_class::SimdSha1Hash2                  0      0.00%     87.86% # Class of executed instruction
system.cpu.op_class::SimdSha256Hash                 0      0.00%     87.86% # Class of executed instruction
system.cpu.op_class::SimdSha256Hash2                0      0.00%     87.86% # Class of executed instruction
system.cpu.op_class::SimdShaSigma2                  0      0.00%     87.86% # Class of executed instruction
system.cpu.op_class::SimdShaSigma3                  0      0.00%     87.86% # Class of executed instruction
system.cpu.op_class::SimdPredAlu                    0      0.00%     87.86% # Class of executed instruction
system.cpu.op_class::MemRead                  5134469     11.94%     99.80% # Class of executed instruction
system.cpu.op_class::MemWrite                   62176      0.14%     99.95% # Class of executed instruction
system.cpu.op_class::FloatMemRead               18674      0.04%     99.99% # Class of executed instruction
system.cpu.op_class::FloatMemWrite               4741      0.01%    100.00% # Class of executed instruction
system.cpu.op_class::IprAccess                      0      0.00%    100.00% # Class of executed instruction
system.cpu.op_class::InstPrefetch                   0      0.00%    100.00% # Class of executed instruction
system.cpu.op_class::total                   43015956                       # Class of executed instruction
system.cpu.workload.numSyscalls                    17                       # Number of system calls
system.l2bus.snoop_filter.hit_multi_requests            1                       # Number of requests hitting in the snoop filter with multiple (>1) holders of the requested data.
system.l2bus.snoop_filter.hit_multi_snoops            0                       # Number of snoops hitting in the snoop filter with multiple (>1) holders of the requested data.
system.l2bus.snoop_filter.hit_single_requests         2898                       # Number of requests hitting in the snoop filter with a single holder of the requested data.
system.l2bus.snoop_filter.hit_single_snoops          913                       # Number of snoops hitting in the snoop filter with a single holder of the requested data.
system.l2bus.snoop_filter.tot_requests           6305                       # Total number of requests made to the snoop filter.
system.l2bus.snoop_filter.tot_snoops              913                       # Total number of snoops made to the snoop filter.
system.membus.snoop_filter.hit_multi_requests            0                       # Number of requests hitting in the snoop filter with multiple (>1) holders of the requested data.
system.membus.snoop_filter.hit_multi_snoops            0                       # Number of snoops hitting in the snoop filter with multiple (>1) holders of the requested data.
system.membus.snoop_filter.hit_single_requests         1057                       # Number of requests hitting in the snoop filter with a single holder of the requested data.
system.membus.snoop_filter.hit_single_snoops            0                       # Number of snoops hitting in the snoop filter with a single holder of the requested data.
system.membus.snoop_filter.tot_requests          2842                       # Total number of requests made to the snoop filter.
system.membus.snoop_filter.tot_snoops               0                       # Total number of snoops made to the snoop filter.
system.membus.trans_dist::ReadResp               1245                       # Transaction distribution
system.membus.trans_dist::WritebackDirty          202                       # Transaction distribution
system.membus.trans_dist::CleanEvict              855                       # Transaction distribution
system.membus.trans_dist::ReadExReq               540                       # Transaction distribution
system.membus.trans_dist::ReadExResp              540                       # Transaction distribution
system.membus.trans_dist::ReadSharedReq          1245                       # Transaction distribution
system.membus.pkt_count_system.l2cache.mem_side::system.mem_ctrl.port         4627                       # Packet count per connected master and slave (bytes)
system.membus.pkt_count_system.l2cache.mem_side::total         4627                       # Packet count per connected master and slave (bytes)
system.membus.pkt_count::total                   4627                       # Packet count per connected master and slave (bytes)
system.membus.pkt_size_system.l2cache.mem_side::system.mem_ctrl.port       127168                       # Cumulative packet size per connected master and slave (bytes)
system.membus.pkt_size_system.l2cache.mem_side::total       127168                       # Cumulative packet size per connected master and slave (bytes)
system.membus.pkt_size::total                  127168                       # Cumulative packet size per connected master and slave (bytes)
system.membus.snoops                                0                       # Total snoops (count)
system.membus.snoopTraffic                          0                       # Total snoop traffic (bytes)
system.membus.snoop_fanout::samples              1785                       # Request fanout histogram
system.membus.snoop_fanout::mean                    0                       # Request fanout histogram
system.membus.snoop_fanout::stdev                   0                       # Request fanout histogram
system.membus.snoop_fanout::underflows              0      0.00%      0.00% # Request fanout histogram
system.membus.snoop_fanout::0                    1785    100.00%    100.00% # Request fanout histogram
system.membus.snoop_fanout::1                       0      0.00%    100.00% # Request fanout histogram
system.membus.snoop_fanout::overflows               0      0.00%    100.00% # Request fanout histogram
system.membus.snoop_fanout::min_value               0                       # Request fanout histogram
system.membus.snoop_fanout::max_value               0                       # Request fanout histogram
system.membus.snoop_fanout::total                1785                       # Request fanout histogram
system.membus.reqLayer0.occupancy             3650000                       # Layer occupancy (ticks)
system.membus.reqLayer0.utilization               0.0                       # Layer utilization (%)
system.membus.respLayer0.occupancy            9484750                       # Layer occupancy (ticks)
system.membus.respLayer0.utilization              0.0                       # Layer utilization (%)
system.membus.power_state.pwrStateResidencyTicks::UNDEFINED  69946536000                       # Cumulative time (in ticks) in various power states
system.l2bus.trans_dist::ReadResp                2360                       # Transaction distribution
system.l2bus.trans_dist::WritebackDirty          2094                       # Transaction distribution
system.l2bus.trans_dist::CleanEvict              2335                       # Transaction distribution
system.l2bus.trans_dist::ReadExReq               1047                       # Transaction distribution
system.l2bus.trans_dist::ReadExResp              1047                       # Transaction distribution
system.l2bus.trans_dist::ReadSharedReq           2360                       # Transaction distribution
system.l2bus.pkt_count_system.cpu.icache.mem_side::system.l2cache.cpu_side         2069                       # Packet count per connected master and slave (bytes)
system.l2bus.pkt_count_system.cpu.dcache.mem_side::system.l2cache.cpu_side         7643                       # Packet count per connected master and slave (bytes)
system.l2bus.pkt_count::total                    9712                       # Packet count per connected master and slave (bytes)
system.l2bus.pkt_size_system.cpu.icache.mem_side::system.l2cache.cpu_side        49536                       # Cumulative packet size per connected master and slave (bytes)
system.l2bus.pkt_size_system.cpu.dcache.mem_side::system.l2cache.cpu_side       289600                       # Cumulative packet size per connected master and slave (bytes)
system.l2bus.pkt_size::total                   339136                       # Cumulative packet size per connected master and slave (bytes)
system.l2bus.snoops                              1531                       # Total snoops (count)
system.l2bus.snoopTraffic                       12928                       # Total snoop traffic (bytes)
system.l2bus.snoop_fanout::samples               4938                       # Request fanout histogram
system.l2bus.snoop_fanout::mean              0.185095                       # Request fanout histogram
system.l2bus.snoop_fanout::stdev             0.388414                       # Request fanout histogram
system.l2bus.snoop_fanout::underflows               0      0.00%      0.00% # Request fanout histogram
system.l2bus.snoop_fanout::0                     4024     81.49%     81.49% # Request fanout histogram
system.l2bus.snoop_fanout::1                      914     18.51%    100.00% # Request fanout histogram
system.l2bus.snoop_fanout::2                        0      0.00%    100.00% # Request fanout histogram
system.l2bus.snoop_fanout::overflows                0      0.00%    100.00% # Request fanout histogram
system.l2bus.snoop_fanout::min_value                0                       # Request fanout histogram
system.l2bus.snoop_fanout::max_value                1                       # Request fanout histogram
system.l2bus.snoop_fanout::total                 4938                       # Request fanout histogram
system.l2bus.reqLayer0.occupancy             10089000                       # Layer occupancy (ticks)
system.l2bus.reqLayer0.utilization                0.0                       # Layer utilization (%)
system.l2bus.respLayer1.occupancy             7899000                       # Layer occupancy (ticks)
system.l2bus.respLayer1.utilization               0.0                       # Layer utilization (%)
system.l2bus.respLayer0.occupancy             2322000                       # Layer occupancy (ticks)
system.l2bus.respLayer0.utilization               0.0                       # Layer utilization (%)
system.l2bus.power_state.pwrStateResidencyTicks::UNDEFINED  69946536000                       # Cumulative time (in ticks) in various power states
system.clk_domain.clock                          1000                       # Clock period in ticks
system.clk_domain.voltage_domain.voltage            1                       # Voltage in Volts
system.cpu.icache.demand_hits::.cpu.inst     29674693                       # number of demand (read+write) hits
system.cpu.icache.demand_hits::total         29674693                       # number of demand (read+write) hits
system.cpu.icache.overall_hits::.cpu.inst     29674693                       # number of overall hits
system.cpu.icache.overall_hits::total        29674693                       # number of overall hits
system.cpu.icache.demand_misses::.cpu.inst          774                       # number of demand (read+write) misses
system.cpu.icache.demand_misses::total            774                       # number of demand (read+write) misses
system.cpu.icache.overall_misses::.cpu.inst          774                       # number of overall misses
system.cpu.icache.overall_misses::total           774                       # number of overall misses
system.cpu.icache.demand_miss_latency::.cpu.inst     62949000                       # number of demand (read+write) miss cycles
system.cpu.icache.demand_miss_latency::total     62949000                       # number of demand (read+write) miss cycles
system.cpu.icache.overall_miss_latency::.cpu.inst     62949000                       # number of overall miss cycles
system.cpu.icache.overall_miss_latency::total     62949000                       # number of overall miss cycles
system.cpu.icache.demand_accesses::.cpu.inst     29675467                       # number of demand (read+write) accesses
system.cpu.icache.demand_accesses::total     29675467                       # number of demand (read+write) accesses
system.cpu.icache.overall_accesses::.cpu.inst     29675467                       # number of overall (read+write) accesses
system.cpu.icache.overall_accesses::total     29675467                       # number of overall (read+write) accesses
system.cpu.icache.demand_miss_rate::.cpu.inst     0.000026                       # miss rate for demand accesses
system.cpu.icache.demand_miss_rate::total     0.000026                       # miss rate for demand accesses
system.cpu.icache.overall_miss_rate::.cpu.inst     0.000026                       # miss rate for overall accesses
system.cpu.icache.overall_miss_rate::total     0.000026                       # miss rate for overall accesses
system.cpu.icache.demand_avg_miss_latency::.cpu.inst 81329.457364                       # average overall miss latency
system.cpu.icache.demand_avg_miss_latency::total 81329.457364                       # average overall miss latency
system.cpu.icache.overall_avg_miss_latency::.cpu.inst 81329.457364                       # average overall miss latency
system.cpu.icache.overall_avg_miss_latency::total 81329.457364                       # average overall miss latency
system.cpu.icache.blocked_cycles::no_mshrs            0                       # number of cycles access was blocked
system.cpu.icache.blocked_cycles::no_targets            0                       # number of cycles access was blocked
system.cpu.icache.blocked::no_mshrs                 0                       # number of cycles access was blocked
system.cpu.icache.blocked::no_targets               0                       # number of cycles access was blocked
system.cpu.icache.avg_blocked_cycles::no_mshrs          nan                       # average number of cycles each access was blocked
system.cpu.icache.avg_blocked_cycles::no_targets          nan                       # average number of cycles each access was blocked
system.cpu.icache.demand_mshr_misses::.cpu.inst          774                       # number of demand (read+write) MSHR misses
system.cpu.icache.demand_mshr_misses::total          774                       # number of demand (read+write) MSHR misses
system.cpu.icache.overall_mshr_misses::.cpu.inst          774                       # number of overall MSHR misses
system.cpu.icache.overall_mshr_misses::total          774                       # number of overall MSHR misses
system.cpu.icache.demand_mshr_miss_latency::.cpu.inst     61401000                       # number of demand (read+write) MSHR miss cycles
system.cpu.icache.demand_mshr_miss_latency::total     61401000                       # number of demand (read+write) MSHR miss cycles
system.cpu.icache.overall_mshr_miss_latency::.cpu.inst     61401000                       # number of overall MSHR miss cycles
system.cpu.icache.overall_mshr_miss_latency::total     61401000                       # number of overall MSHR miss cycles
system.cpu.icache.demand_mshr_miss_rate::.cpu.inst     0.000026                       # mshr miss rate for demand accesses
system.cpu.icache.demand_mshr_miss_rate::total     0.000026                       # mshr miss rate for demand accesses
system.cpu.icache.overall_mshr_miss_rate::.cpu.inst     0.000026                       # mshr miss rate for overall accesses
system.cpu.icache.overall_mshr_miss_rate::total     0.000026                       # mshr miss rate for overall accesses
system.cpu.icache.demand_avg_mshr_miss_latency::.cpu.inst 79329.457364                       # average overall mshr miss latency
system.cpu.icache.demand_avg_mshr_miss_latency::total 79329.457364                       # average overall mshr miss latency
system.cpu.icache.overall_avg_mshr_miss_latency::.cpu.inst 79329.457364                       # average overall mshr miss latency
system.cpu.icache.overall_avg_mshr_miss_latency::total 79329.457364                       # average overall mshr miss latency
system.cpu.icache.replacements                    521                       # number of replacements
system.cpu.icache.ReadReq_hits::.cpu.inst     29674693                       # number of ReadReq hits
system.cpu.icache.ReadReq_hits::total        29674693                       # number of ReadReq hits
system.cpu.icache.ReadReq_misses::.cpu.inst          774                       # number of ReadReq misses
system.cpu.icache.ReadReq_misses::total           774                       # number of ReadReq misses
system.cpu.icache.ReadReq_miss_latency::.cpu.inst     62949000                       # number of ReadReq miss cycles
system.cpu.icache.ReadReq_miss_latency::total     62949000                       # number of ReadReq miss cycles
system.cpu.icache.ReadReq_accesses::.cpu.inst     29675467                       # number of ReadReq accesses(hits+misses)
system.cpu.icache.ReadReq_accesses::total     29675467                       # number of ReadReq accesses(hits+misses)
system.cpu.icache.ReadReq_miss_rate::.cpu.inst     0.000026                       # miss rate for ReadReq accesses
system.cpu.icache.ReadReq_miss_rate::total     0.000026                       # miss rate for ReadReq accesses
system.cpu.icache.ReadReq_avg_miss_latency::.cpu.inst 81329.457364                       # average ReadReq miss latency
system.cpu.icache.ReadReq_avg_miss_latency::total 81329.457364                       # average ReadReq miss latency
system.cpu.icache.ReadReq_mshr_misses::.cpu.inst          774                       # number of ReadReq MSHR misses
system.cpu.icache.ReadReq_mshr_misses::total          774                       # number of ReadReq MSHR misses
system.cpu.icache.ReadReq_mshr_miss_latency::.cpu.inst     61401000                       # number of ReadReq MSHR miss cycles
system.cpu.icache.ReadReq_mshr_miss_latency::total     61401000                       # number of ReadReq MSHR miss cycles
system.cpu.icache.ReadReq_mshr_miss_rate::.cpu.inst     0.000026                       # mshr miss rate for ReadReq accesses
system.cpu.icache.ReadReq_mshr_miss_rate::total     0.000026                       # mshr miss rate for ReadReq accesses
system.cpu.icache.ReadReq_avg_mshr_miss_latency::.cpu.inst 79329.457364                       # average ReadReq mshr miss latency
system.cpu.icache.ReadReq_avg_mshr_miss_latency::total 79329.457364                       # average ReadReq mshr miss latency
system.cpu.icache.power_state.pwrStateResidencyTicks::UNDEFINED  69946536000                       # Cumulative time (in ticks) in various power states
system.cpu.icache.tags.tagsinuse           251.844712                       # Cycle average of tags in use
system.cpu.icache.tags.total_refs            29675467                       # Total number of references to valid blocks.
system.cpu.icache.tags.sampled_refs               774                       # Sample count of references to valid blocks.
system.cpu.icache.tags.avg_refs          38340.396641                       # Average number of references to valid blocks.
system.cpu.icache.tags.warmup_cycle             88000                       # Cycle when the warmup percentage was hit.
system.cpu.icache.tags.occ_blocks::.cpu.inst   251.844712                       # Average occupied blocks per requestor
system.cpu.icache.tags.occ_percent::.cpu.inst     0.983768                       # Average percentage of cache occupancy
system.cpu.icache.tags.occ_percent::total     0.983768                       # Average percentage of cache occupancy
system.cpu.icache.tags.occ_task_id_blocks::1024          253                       # Occupied blocks per task id
system.cpu.icache.tags.age_task_id_blocks_1024::0           61                       # Occupied blocks per task id
system.cpu.icache.tags.age_task_id_blocks_1024::1           84                       # Occupied blocks per task id
system.cpu.icache.tags.age_task_id_blocks_1024::4          108                       # Occupied blocks per task id
system.cpu.icache.tags.occ_task_id_percent::1024     0.988281                       # Percentage of cache occupancy per task id
system.cpu.icache.tags.tag_accesses          59351708                       # Number of tag accesses
system.cpu.icache.tags.data_accesses         59351708                       # Number of data accesses
system.cpu.icache.tags.power_state.pwrStateResidencyTicks::UNDEFINED  69946536000                       # Cumulative time (in ticks) in various power states
system.cpu.dtb.walker.power_state.pwrStateResidencyTicks::UNDEFINED  69946536000                       # Cumulative time (in ticks) in various power states
system.cpu.interrupts.clk_domain.clock          16000                       # Clock period in ticks
system.cpu.itb.walker.power_state.pwrStateResidencyTicks::UNDEFINED  69946536000                       # Cumulative time (in ticks) in various power states
system.cpu.dcache.demand_hits::.cpu.data      5216674                       # number of demand (read+write) hits
system.cpu.dcache.demand_hits::total          5216674                       # number of demand (read+write) hits
system.cpu.dcache.overall_hits::.cpu.data      5216969                       # number of overall hits
system.cpu.dcache.overall_hits::total         5216969                       # number of overall hits
system.cpu.dcache.demand_misses::.cpu.data         2480                       # number of demand (read+write) misses
system.cpu.dcache.demand_misses::total           2480                       # number of demand (read+write) misses
system.cpu.dcache.overall_misses::.cpu.data         2633                       # number of overall misses
system.cpu.dcache.overall_misses::total          2633                       # number of overall misses
system.cpu.dcache.demand_miss_latency::.cpu.data    100672000                       # number of demand (read+write) miss cycles
system.cpu.dcache.demand_miss_latency::total    100672000                       # number of demand (read+write) miss cycles
system.cpu.dcache.overall_miss_latency::.cpu.data    100672000                       # number of overall miss cycles
system.cpu.dcache.overall_miss_latency::total    100672000                       # number of overall miss cycles
system.cpu.dcache.demand_accesses::.cpu.data      5219154                       # number of demand (read+write) accesses
system.cpu.dcache.demand_accesses::total      5219154                       # number of demand (read+write) accesses
system.cpu.dcache.overall_accesses::.cpu.data      5219602                       # number of overall (read+write) accesses
system.cpu.dcache.overall_accesses::total      5219602                       # number of overall (read+write) accesses
system.cpu.dcache.demand_miss_rate::.cpu.data     0.000475                       # miss rate for demand accesses
system.cpu.dcache.demand_miss_rate::total     0.000475                       # miss rate for demand accesses
system.cpu.dcache.overall_miss_rate::.cpu.data     0.000504                       # miss rate for overall accesses
system.cpu.dcache.overall_miss_rate::total     0.000504                       # miss rate for overall accesses
system.cpu.dcache.demand_avg_miss_latency::.cpu.data 40593.548387                       # average overall miss latency
system.cpu.dcache.demand_avg_miss_latency::total 40593.548387                       # average overall miss latency
system.cpu.dcache.overall_avg_miss_latency::.cpu.data 38234.713255                       # average overall miss latency
system.cpu.dcache.overall_avg_miss_latency::total 38234.713255                       # average overall miss latency
system.cpu.dcache.blocked_cycles::no_mshrs            0                       # number of cycles access was blocked
system.cpu.dcache.blocked_cycles::no_targets            0                       # number of cycles access was blocked
system.cpu.dcache.blocked::no_mshrs                 0                       # number of cycles access was blocked
system.cpu.dcache.blocked::no_targets               0                       # number of cycles access was blocked
system.cpu.dcache.avg_blocked_cycles::no_mshrs          nan                       # average number of cycles each access was blocked
system.cpu.dcache.avg_blocked_cycles::no_targets          nan                       # average number of cycles each access was blocked
system.cpu.dcache.writebacks::.writebacks         1892                       # number of writebacks
system.cpu.dcache.writebacks::total              1892                       # number of writebacks
system.cpu.dcache.demand_mshr_misses::.cpu.data         2480                       # number of demand (read+write) MSHR misses
system.cpu.dcache.demand_mshr_misses::total         2480                       # number of demand (read+write) MSHR misses
system.cpu.dcache.overall_mshr_misses::.cpu.data         2633                       # number of overall MSHR misses
system.cpu.dcache.overall_mshr_misses::total         2633                       # number of overall MSHR misses
system.cpu.dcache.demand_mshr_miss_latency::.cpu.data     95712000                       # number of demand (read+write) MSHR miss cycles
system.cpu.dcache.demand_mshr_miss_latency::total     95712000                       # number of demand (read+write) MSHR miss cycles
system.cpu.dcache.overall_mshr_miss_latency::.cpu.data    104965000                       # number of overall MSHR miss cycles
system.cpu.dcache.overall_mshr_miss_latency::total    104965000                       # number of overall MSHR miss cycles
system.cpu.dcache.demand_mshr_miss_rate::.cpu.data     0.000475                       # mshr miss rate for demand accesses
system.cpu.dcache.demand_mshr_miss_rate::total     0.000475                       # mshr miss rate for demand accesses
system.cpu.dcache.overall_mshr_miss_rate::.cpu.data     0.000504                       # mshr miss rate for overall accesses
system.cpu.dcache.overall_mshr_miss_rate::total     0.000504                       # mshr miss rate for overall accesses
system.cpu.dcache.demand_avg_mshr_miss_latency::.cpu.data 38593.548387                       # average overall mshr miss latency
system.cpu.dcache.demand_avg_mshr_miss_latency::total 38593.548387                       # average overall mshr miss latency
system.cpu.dcache.overall_avg_mshr_miss_latency::.cpu.data 39865.172807                       # average overall mshr miss latency
system.cpu.dcache.overall_avg_mshr_miss_latency::total 39865.172807                       # average overall mshr miss latency
system.cpu.dcache.replacements                   2377                       # number of replacements
system.cpu.dcache.ReadReq_hits::.cpu.data      5151491                       # number of ReadReq hits
system.cpu.dcache.ReadReq_hits::total         5151491                       # number of ReadReq hits
system.cpu.dcache.ReadReq_misses::.cpu.data         1433                       # number of ReadReq misses
system.cpu.dcache.ReadReq_misses::total          1433                       # number of ReadReq misses
system.cpu.dcache.ReadReq_miss_latency::.cpu.data     48395000                       # number of ReadReq miss cycles
system.cpu.dcache.ReadReq_miss_latency::total     48395000                       # number of ReadReq miss cycles
system.cpu.dcache.ReadReq_accesses::.cpu.data      5152924                       # number of ReadReq accesses(hits+misses)
system.cpu.dcache.ReadReq_accesses::total      5152924                       # number of ReadReq accesses(hits+misses)
system.cpu.dcache.ReadReq_miss_rate::.cpu.data     0.000278                       # miss rate for ReadReq accesses
system.cpu.dcache.ReadReq_miss_rate::total     0.000278                       # miss rate for ReadReq accesses
system.cpu.dcache.ReadReq_avg_miss_latency::.cpu.data 33771.807397                       # average ReadReq miss latency
system.cpu.dcache.ReadReq_avg_miss_latency::total 33771.807397                       # average ReadReq miss latency
system.cpu.dcache.ReadReq_mshr_misses::.cpu.data         1433                       # number of ReadReq MSHR misses
system.cpu.dcache.ReadReq_mshr_misses::total         1433                       # number of ReadReq MSHR misses
system.cpu.dcache.ReadReq_mshr_miss_latency::.cpu.data     45529000                       # number of ReadReq MSHR miss cycles
system.cpu.dcache.ReadReq_mshr_miss_latency::total     45529000                       # number of ReadReq MSHR miss cycles
system.cpu.dcache.ReadReq_mshr_miss_rate::.cpu.data     0.000278                       # mshr miss rate for ReadReq accesses
system.cpu.dcache.ReadReq_mshr_miss_rate::total     0.000278                       # mshr miss rate for ReadReq accesses
system.cpu.dcache.ReadReq_avg_mshr_miss_latency::.cpu.data 31771.807397                       # average ReadReq mshr miss latency
system.cpu.dcache.ReadReq_avg_mshr_miss_latency::total 31771.807397                       # average ReadReq mshr miss latency
system.cpu.dcache.WriteReq_hits::.cpu.data        65183                       # number of WriteReq hits
system.cpu.dcache.WriteReq_hits::total          65183                       # number of WriteReq hits
system.cpu.dcache.WriteReq_misses::.cpu.data         1047                       # number of WriteReq misses
system.cpu.dcache.WriteReq_misses::total         1047                       # number of WriteReq misses
system.cpu.dcache.WriteReq_miss_latency::.cpu.data     52277000                       # number of WriteReq miss cycles
system.cpu.dcache.WriteReq_miss_latency::total     52277000                       # number of WriteReq miss cycles
system.cpu.dcache.WriteReq_accesses::.cpu.data        66230                       # number of WriteReq accesses(hits+misses)
system.cpu.dcache.WriteReq_accesses::total        66230                       # number of WriteReq accesses(hits+misses)
system.cpu.dcache.WriteReq_miss_rate::.cpu.data     0.015809                       # miss rate for WriteReq accesses
system.cpu.dcache.WriteReq_miss_rate::total     0.015809                       # miss rate for WriteReq accesses
system.cpu.dcache.WriteReq_avg_miss_latency::.cpu.data 49930.276982                       # average WriteReq miss latency
system.cpu.dcache.WriteReq_avg_miss_latency::total 49930.276982                       # average WriteReq miss latency
system.cpu.dcache.WriteReq_mshr_misses::.cpu.data         1047                       # number of WriteReq MSHR misses
system.cpu.dcache.WriteReq_mshr_misses::total         1047                       # number of WriteReq MSHR misses
system.cpu.dcache.WriteReq_mshr_miss_latency::.cpu.data     50183000                       # number of WriteReq MSHR miss cycles
system.cpu.dcache.WriteReq_mshr_miss_latency::total     50183000                       # number of WriteReq MSHR miss cycles
system.cpu.dcache.WriteReq_mshr_miss_rate::.cpu.data     0.015809                       # mshr miss rate for WriteReq accesses
system.cpu.dcache.WriteReq_mshr_miss_rate::total     0.015809                       # mshr miss rate for WriteReq accesses
system.cpu.dcache.WriteReq_avg_mshr_miss_latency::.cpu.data 47930.276982                       # average WriteReq mshr miss latency
system.cpu.dcache.WriteReq_avg_mshr_miss_latency::total 47930.276982                       # average WriteReq mshr miss latency
system.cpu.dcache.SoftPFReq_hits::.cpu.data          295                       # number of SoftPFReq hits
system.cpu.dcache.SoftPFReq_hits::total           295                       # number of SoftPFReq hits
system.cpu.dcache.SoftPFReq_misses::.cpu.data          153                       # number of SoftPFReq misses
system.cpu.dcache.SoftPFReq_misses::total          153                       # number of SoftPFReq misses
system.cpu.dcache.SoftPFReq_accesses::.cpu.data          448                       # number of SoftPFReq accesses(hits+misses)
system.cpu.dcache.SoftPFReq_accesses::total          448                       # number of SoftPFReq accesses(hits+misses)
system.cpu.dcache.SoftPFReq_miss_rate::.cpu.data     0.341518                       # miss rate for SoftPFReq accesses
system.cpu.dcache.SoftPFReq_miss_rate::total     0.341518                       # miss rate for SoftPFReq accesses
system.cpu.dcache.SoftPFReq_mshr_misses::.cpu.data          153                       # number of SoftPFReq MSHR misses
system.cpu.dcache.SoftPFReq_mshr_misses::total          153                       # number of SoftPFReq MSHR misses
system.cpu.dcache.SoftPFReq_mshr_miss_latency::.cpu.data      9253000                       # number of SoftPFReq MSHR miss cycles
system.cpu.dcache.SoftPFReq_mshr_miss_latency::total      9253000                       # number of SoftPFReq MSHR miss cycles
system.cpu.dcache.SoftPFReq_mshr_miss_rate::.cpu.data     0.341518                       # mshr miss rate for SoftPFReq accesses
system.cpu.dcache.SoftPFReq_mshr_miss_rate::total     0.341518                       # mshr miss rate for SoftPFReq accesses
system.cpu.dcache.SoftPFReq_avg_mshr_miss_latency::.cpu.data 60477.124183                       # average SoftPFReq mshr miss latency
system.cpu.dcache.SoftPFReq_avg_mshr_miss_latency::total 60477.124183                       # average SoftPFReq mshr miss latency
system.cpu.dcache.power_state.pwrStateResidencyTicks::UNDEFINED  69946536000                       # Cumulative time (in ticks) in various power states
system.cpu.dcache.tags.tagsinuse           255.838576                       # Cycle average of tags in use
system.cpu.dcache.tags.total_refs             5219602                       # Total number of references to valid blocks.
system.cpu.dcache.tags.sampled_refs              2633                       # Sample count of references to valid blocks.
system.cpu.dcache.tags.avg_refs           1982.378276                       # Average number of references to valid blocks.
system.cpu.dcache.tags.warmup_cycle            181000                       # Cycle when the warmup percentage was hit.
system.cpu.dcache.tags.occ_blocks::.cpu.data   255.838576                       # Average occupied blocks per requestor
system.cpu.dcache.tags.occ_percent::.cpu.data     0.999369                       # Average percentage of cache occupancy
system.cpu.dcache.tags.occ_percent::total     0.999369                       # Average percentage of cache occupancy
system.cpu.dcache.tags.occ_task_id_blocks::1024          256                       # Occupied blocks per task id
system.cpu.dcache.tags.age_task_id_blocks_1024::0           36                       # Occupied blocks per task id
system.cpu.dcache.tags.age_task_id_blocks_1024::1          158                       # Occupied blocks per task id
system.cpu.dcache.tags.age_task_id_blocks_1024::3            7                       # Occupied blocks per task id
system.cpu.dcache.tags.age_task_id_blocks_1024::4           55                       # Occupied blocks per task id
system.cpu.dcache.tags.occ_task_id_percent::1024            1                       # Percentage of cache occupancy per task id
system.cpu.dcache.tags.tag_accesses          10441837                       # Number of tag accesses
system.cpu.dcache.tags.data_accesses         10441837                       # Number of data accesses
system.cpu.dcache.tags.power_state.pwrStateResidencyTicks::UNDEFINED  69946536000                       # Cumulative time (in ticks) in various power states
system.cpu.power_state.numTransitions               1                       # Number of power state transitions
system.cpu.power_state.pwrStateResidencyTicks::ON  69946536000                       # Cumulative time (in ticks) in various power states
system.l2cache.demand_hits::.cpu.inst              22                       # number of demand (read+write) hits
system.l2cache.demand_hits::.cpu.data            1600                       # number of demand (read+write) hits
system.l2cache.demand_hits::total                1622                       # number of demand (read+write) hits
system.l2cache.overall_hits::.cpu.inst             22                       # number of overall hits
system.l2cache.overall_hits::.cpu.data           1600                       # number of overall hits
system.l2cache.overall_hits::total               1622                       # number of overall hits
system.l2cache.demand_misses::.cpu.inst           752                       # number of demand (read+write) misses
system.l2cache.demand_misses::.cpu.data          1033                       # number of demand (read+write) misses
system.l2cache.demand_misses::total              1785                       # number of demand (read+write) misses
system.l2cache.overall_misses::.cpu.inst          752                       # number of overall misses
system.l2cache.overall_misses::.cpu.data         1033                       # number of overall misses
system.l2cache.overall_misses::total             1785                       # number of overall misses
system.l2cache.demand_miss_latency::.cpu.inst     58832000                       # number of demand (read+write) miss cycles
system.l2cache.demand_miss_latency::.cpu.data     78744000                       # number of demand (read+write) miss cycles
system.l2cache.demand_miss_latency::total    137576000                       # number of demand (read+write) miss cycles
system.l2cache.overall_miss_latency::.cpu.inst     58832000                       # number of overall miss cycles
system.l2cache.overall_miss_latency::.cpu.data     78744000                       # number of overall miss cycles
system.l2cache.overall_miss_latency::total    137576000                       # number of overall miss cycles
system.l2cache.demand_accesses::.cpu.inst          774                       # number of demand (read+write) accesses
system.l2cache.demand_accesses::.cpu.data         2633                       # number of demand (read+write) accesses
system.l2cache.demand_accesses::total            3407                       # number of demand (read+write) accesses
system.l2cache.overall_accesses::.cpu.inst          774                       # number of overall (read+write) accesses
system.l2cache.overall_accesses::.cpu.data         2633                       # number of overall (read+write) accesses
system.l2cache.overall_accesses::total           3407                       # number of overall (read+write) accesses
system.l2cache.demand_miss_rate::.cpu.inst     0.971576                       # miss rate for demand accesses
system.l2cache.demand_miss_rate::.cpu.data     0.392328                       # miss rate for demand accesses
system.l2cache.demand_miss_rate::total       0.523921                       # miss rate for demand accesses
system.l2cache.overall_miss_rate::.cpu.inst     0.971576                       # miss rate for overall accesses
system.l2cache.overall_miss_rate::.cpu.data     0.392328                       # miss rate for overall accesses
system.l2cache.overall_miss_rate::total      0.523921                       # miss rate for overall accesses
system.l2cache.demand_avg_miss_latency::.cpu.inst 78234.042553                       # average overall miss latency
system.l2cache.demand_avg_miss_latency::.cpu.data 76228.460794                       # average overall miss latency
system.l2cache.demand_avg_miss_latency::total 77073.389356                       # average overall miss latency
system.l2cache.overall_avg_miss_latency::.cpu.inst 78234.042553                       # average overall miss latency
system.l2cache.overall_avg_miss_latency::.cpu.data 76228.460794                       # average overall miss latency
system.l2cache.overall_avg_miss_latency::total 77073.389356                       # average overall miss latency
system.l2cache.blocked_cycles::no_mshrs             0                       # number of cycles access was blocked
system.l2cache.blocked_cycles::no_targets            0                       # number of cycles access was blocked
system.l2cache.blocked::no_mshrs                    0                       # number of cycles access was blocked
system.l2cache.blocked::no_targets                  0                       # number of cycles access was blocked
system.l2cache.avg_blocked_cycles::no_mshrs          nan                       # average number of cycles each access was blocked
system.l2cache.avg_blocked_cycles::no_targets          nan                       # average number of cycles each access was blocked
system.l2cache.writebacks::.writebacks            202                       # number of writebacks
system.l2cache.writebacks::total                  202                       # number of writebacks
system.l2cache.demand_mshr_misses::.cpu.inst          752                       # number of demand (read+write) MSHR misses
system.l2cache.demand_mshr_misses::.cpu.data         1033                       # number of demand (read+write) MSHR misses
system.l2cache.demand_mshr_misses::total         1785                       # number of demand (read+write) MSHR misses
system.l2cache.overall_mshr_misses::.cpu.inst          752                       # number of overall MSHR misses
system.l2cache.overall_mshr_misses::.cpu.data         1033                       # number of overall MSHR misses
system.l2cache.overall_mshr_misses::total         1785                       # number of overall MSHR misses
system.l2cache.demand_mshr_miss_latency::.cpu.inst     51312000                       # number of demand (read+write) MSHR miss cycles
system.l2cache.demand_mshr_miss_latency::.cpu.data     68414000                       # number of demand (read+write) MSHR miss cycles
system.l2cache.demand_mshr_miss_latency::total    119726000                       # number of demand (read+write) MSHR miss cycles
system.l2cache.overall_mshr_miss_latency::.cpu.inst     51312000                       # number of overall MSHR miss cycles
system.l2cache.overall_mshr_miss_latency::.cpu.data     68414000                       # number of overall MSHR miss cycles
system.l2cache.overall_mshr_miss_latency::total    119726000                       # number of overall MSHR miss cycles
system.l2cache.demand_mshr_miss_rate::.cpu.inst     0.971576                       # mshr miss rate for demand accesses
system.l2cache.demand_mshr_miss_rate::.cpu.data     0.392328                       # mshr miss rate for demand accesses
system.l2cache.demand_mshr_miss_rate::total     0.523921                       # mshr miss rate for demand accesses
system.l2cache.overall_mshr_miss_rate::.cpu.inst     0.971576                       # mshr miss rate for overall accesses
system.l2cache.overall_mshr_miss_rate::.cpu.data     0.392328                       # mshr miss rate for overall accesses
system.l2cache.overall_mshr_miss_rate::total     0.523921                       # mshr miss rate for overall accesses
system.l2cache.demand_avg_mshr_miss_latency::.cpu.inst 68234.042553                       # average overall mshr miss latency
system.l2cache.demand_avg_mshr_miss_latency::.cpu.data 66228.460794                       # average overall mshr miss latency
system.l2cache.demand_avg_mshr_miss_latency::total 67073.389356                       # average overall mshr miss latency
system.l2cache.overall_avg_mshr_miss_latency::.cpu.inst 68234.042553                       # average overall mshr miss latency
system.l2cache.overall_avg_mshr_miss_latency::.cpu.data 66228.460794                       # average overall mshr miss latency
system.l2cache.overall_avg_mshr_miss_latency::total 67073.389356                       # average overall mshr miss latency
system.l2cache.replacements                      1531                       # number of replacements
system.l2cache.WritebackDirty_hits::.writebacks         1892                       # number of WritebackDirty hits
system.l2cache.WritebackDirty_hits::total         1892                       # number of WritebackDirty hits
system.l2cache.WritebackDirty_accesses::.writebacks         1892                       # number of WritebackDirty accesses(hits+misses)
system.l2cache.WritebackDirty_accesses::total         1892                       # number of WritebackDirty accesses(hits+misses)
system.l2cache.CleanEvict_mshr_misses::.writebacks          439                       # number of CleanEvict MSHR misses
system.l2cache.CleanEvict_mshr_misses::total          439                       # number of CleanEvict MSHR misses
system.l2cache.CleanEvict_mshr_miss_rate::.writebacks          inf                       # mshr miss rate for CleanEvict accesses
system.l2cache.CleanEvict_mshr_miss_rate::total          inf                       # mshr miss rate for CleanEvict accesses
system.l2cache.ReadExReq_hits::.cpu.data          507                       # number of ReadExReq hits
system.l2cache.ReadExReq_hits::total              507                       # number of ReadExReq hits
system.l2cache.ReadExReq_misses::.cpu.data          540                       # number of ReadExReq misses
system.l2cache.ReadExReq_misses::total            540                       # number of ReadExReq misses
system.l2cache.ReadExReq_miss_latency::.cpu.data     41464000                       # number of ReadExReq miss cycles
system.l2cache.ReadExReq_miss_latency::total     41464000                       # number of ReadExReq miss cycles
system.l2cache.ReadExReq_accesses::.cpu.data         1047                       # number of ReadExReq accesses(hits+misses)
system.l2cache.ReadExReq_accesses::total         1047                       # number of ReadExReq accesses(hits+misses)
system.l2cache.ReadExReq_miss_rate::.cpu.data     0.515759                       # miss rate for ReadExReq accesses
system.l2cache.ReadExReq_miss_rate::total     0.515759                       # miss rate for ReadExReq accesses
system.l2cache.ReadExReq_avg_miss_latency::.cpu.data 76785.185185                       # average ReadExReq miss latency
system.l2cache.ReadExReq_avg_miss_latency::total 76785.185185                       # average ReadExReq miss latency
system.l2cache.ReadExReq_mshr_misses::.cpu.data          540                       # number of ReadExReq MSHR misses
system.l2cache.ReadExReq_mshr_misses::total          540                       # number of ReadExReq MSHR misses
system.l2cache.ReadExReq_mshr_miss_latency::.cpu.data     36064000                       # number of ReadExReq MSHR miss cycles
system.l2cache.ReadExReq_mshr_miss_latency::total     36064000                       # number of ReadExReq MSHR miss cycles
system.l2cache.ReadExReq_mshr_miss_rate::.cpu.data     0.515759                       # mshr miss rate for ReadExReq accesses
system.l2cache.ReadExReq_mshr_miss_rate::total     0.515759                       # mshr miss rate for ReadExReq accesses
system.l2cache.ReadExReq_avg_mshr_miss_latency::.cpu.data 66785.185185                       # average ReadExReq mshr miss latency
system.l2cache.ReadExReq_avg_mshr_miss_latency::total 66785.185185                       # average ReadExReq mshr miss latency
system.l2cache.ReadSharedReq_hits::.cpu.inst           22                       # number of ReadSharedReq hits
system.l2cache.ReadSharedReq_hits::.cpu.data         1093                       # number of ReadSharedReq hits
system.l2cache.ReadSharedReq_hits::total         1115                       # number of ReadSharedReq hits
system.l2cache.ReadSharedReq_misses::.cpu.inst          752                       # number of ReadSharedReq misses
system.l2cache.ReadSharedReq_misses::.cpu.data          493                       # number of ReadSharedReq misses
system.l2cache.ReadSharedReq_misses::total         1245                       # number of ReadSharedReq misses
system.l2cache.ReadSharedReq_miss_latency::.cpu.inst     58832000                       # number of ReadSharedReq miss cycles
system.l2cache.ReadSharedReq_miss_latency::.cpu.data     37280000                       # number of ReadSharedReq miss cycles
system.l2cache.ReadSharedReq_miss_latency::total     96112000                       # number of ReadSharedReq miss cycles
system.l2cache.ReadSharedReq_accesses::.cpu.inst          774                       # number of ReadSharedReq accesses(hits+misses)
system.l2cache.ReadSharedReq_accesses::.cpu.data         1586                       # number of ReadSharedReq accesses(hits+misses)
system.l2cache.ReadSharedReq_accesses::total         2360                       # number of ReadSharedReq accesses(hits+misses)
system.l2cache.ReadSharedReq_miss_rate::.cpu.inst     0.971576                       # miss rate for ReadSharedReq accesses
system.l2cache.ReadSharedReq_miss_rate::.cpu.data     0.310845                       # miss rate for ReadSharedReq accesses
system.l2cache.ReadSharedReq_miss_rate::total     0.527542                       # miss rate for ReadSharedReq accesses
system.l2cache.ReadSharedReq_avg_miss_latency::.cpu.inst 78234.042553                       # average ReadSharedReq miss latency
system.l2cache.ReadSharedReq_avg_miss_latency::.cpu.data 75618.661258                       # average ReadSharedReq miss latency
system.l2cache.ReadSharedReq_avg_miss_latency::total 77198.393574                       # average ReadSharedReq miss latency
system.l2cache.ReadSharedReq_mshr_misses::.cpu.inst          752                       # number of ReadSharedReq MSHR misses
system.l2cache.ReadSharedReq_mshr_misses::.cpu.data          493                       # number of ReadSharedReq MSHR misses
system.l2cache.ReadSharedReq_mshr_misses::total         1245                       # number of ReadSharedReq MSHR misses
system.l2cache.ReadSharedReq_mshr_miss_latency::.cpu.inst     51312000                       # number of ReadSharedReq MSHR miss cycles
system.l2cache.ReadSharedReq_mshr_miss_latency::.cpu.data     32350000                       # number of ReadSharedReq MSHR miss cycles
system.l2cache.ReadSharedReq_mshr_miss_latency::total     83662000                       # number of ReadSharedReq MSHR miss cycles
system.l2cache.ReadSharedReq_mshr_miss_rate::.cpu.inst     0.971576                       # mshr miss rate for ReadSharedReq accesses
system.l2cache.ReadSharedReq_mshr_miss_rate::.cpu.data     0.310845                       # mshr miss rate for ReadSharedReq accesses
system.l2cache.ReadSharedReq_mshr_miss_rate::total     0.527542                       # mshr miss rate for ReadSharedReq accesses
system.l2cache.ReadSharedReq_avg_mshr_miss_latency::.cpu.inst 68234.042553                       # average ReadSharedReq mshr miss latency
system.l2cache.ReadSharedReq_avg_mshr_miss_latency::.cpu.data 65618.661258                       # average ReadSharedReq mshr miss latency
system.l2cache.ReadSharedReq_avg_mshr_miss_latency::total 67198.393574                       # average ReadSharedReq mshr miss latency
system.l2cache.power_state.pwrStateResidencyTicks::UNDEFINED  69946536000                       # Cumulative time (in ticks) in various power states
system.l2cache.tags.tagsinuse              511.755980                       # Cycle average of tags in use
system.l2cache.tags.total_refs                   5865                       # Total number of references to valid blocks.
system.l2cache.tags.sampled_refs                 2043                       # Sample count of references to valid blocks.
system.l2cache.tags.avg_refs                 2.870778                       # Average number of references to valid blocks.
system.l2cache.tags.warmup_cycle                77000                       # Cycle when the warmup percentage was hit.
system.l2cache.tags.occ_blocks::.writebacks    55.202329                       # Average occupied blocks per requestor
system.l2cache.tags.occ_blocks::.cpu.inst    34.494904                       # Average occupied blocks per requestor
system.l2cache.tags.occ_blocks::.cpu.data   422.058746                       # Average occupied blocks per requestor
system.l2cache.tags.occ_percent::.writebacks     0.107817                       # Average percentage of cache occupancy
system.l2cache.tags.occ_percent::.cpu.inst     0.067373                       # Average percentage of cache occupancy
system.l2cache.tags.occ_percent::.cpu.data     0.824333                       # Average percentage of cache occupancy
system.l2cache.tags.occ_percent::total       0.999523                       # Average percentage of cache occupancy
system.l2cache.tags.occ_task_id_blocks::1024          512                       # Occupied blocks per task id
system.l2cache.tags.age_task_id_blocks_1024::0          116                       # Occupied blocks per task id
system.l2cache.tags.age_task_id_blocks_1024::1          291                       # Occupied blocks per task id
system.l2cache.tags.age_task_id_blocks_1024::4          105                       # Occupied blocks per task id
system.l2cache.tags.occ_task_id_percent::1024            1                       # Percentage of cache occupancy per task id
system.l2cache.tags.tag_accesses                52475                       # Number of tag accesses
system.l2cache.tags.data_accesses               52475                       # Number of data accesses
system.l2cache.tags.power_state.pwrStateResidencyTicks::UNDEFINED  69946536000                       # Cumulative time (in ticks) in various power states
system.mem_ctrl.bytes_read::.cpu.inst           48128                       # Number of bytes read from this memory
system.mem_ctrl.bytes_read::.cpu.data           66112                       # Number of bytes read from this memory
system.mem_ctrl.bytes_read::total              114240                       # Number of bytes read from this memory
system.mem_ctrl.bytes_inst_read::.cpu.inst        48128                       # Number of instructions bytes read from this memory
system.mem_ctrl.bytes_inst_read::total          48128                       # Number of instructions bytes read from this memory
system.mem_ctrl.bytes_written::.writebacks        12928                       # Number of bytes written to this memory
system.mem_ctrl.bytes_written::total            12928                       # Number of bytes written to this memory
system.mem_ctrl.num_reads::.cpu.inst              752                       # Number of read requests responded to by this memory
system.mem_ctrl.num_reads::.cpu.data             1033                       # Number of read requests responded to by this memory
system.mem_ctrl.num_reads::total                 1785                       # Number of read requests responded to by this memory
system.mem_ctrl.num_writes::.writebacks           202                       # Number of write requests responded to by this memory
system.mem_ctrl.num_writes::total                 202                       # Number of write requests responded to by this memory
system.mem_ctrl.bw_read::.cpu.inst             688068                       # Total read bandwidth from this memory (bytes/s)
system.mem_ctrl.bw_read::.cpu.data             945179                       # Total read bandwidth from this memory (bytes/s)
system.mem_ctrl.bw_read::total                1633247                       # Total read bandwidth from this memory (bytes/s)
system.mem_ctrl.bw_inst_read::.cpu.inst        688068                       # Instruction read bandwidth from this memory (bytes/s)
system.mem_ctrl.bw_inst_read::total            688068                       # Instruction read bandwidth from this memory (bytes/s)
system.mem_ctrl.bw_write::.writebacks          184827                       # Write bandwidth from this memory (bytes/s)
system.mem_ctrl.bw_write::total                184827                       # Write bandwidth from this memory (bytes/s)
system.mem_ctrl.bw_total::.writebacks          184827                       # Total bandwidth to/from this memory (bytes/s)
system.mem_ctrl.bw_total::.cpu.inst            688068                       # Total bandwidth to/from this memory (bytes/s)
system.mem_ctrl.bw_total::.cpu.data            945179                       # Total bandwidth to/from this memory (bytes/s)
system.mem_ctrl.bw_total::total               1818074                       # Total bandwidth to/from this memory (bytes/s)
system.mem_ctrl.avgPriority_.writebacks::samples       202.00                       # Average QoS priority value for accepted requests
system.mem_ctrl.avgPriority_.cpu.inst::samples       752.00                       # Average QoS priority value for accepted requests
system.mem_ctrl.avgPriority_.cpu.data::samples      1003.00                       # Average QoS priority value for accepted requests
system.mem_ctrl.priorityMinLatency       0.000000018750                       # per QoS priority minimum request to response latency (s)
system.mem_ctrl.priorityMaxLatency       0.139077866500                       # per QoS priority maximum request to response latency (s)
system.mem_ctrl.numReadWriteTurnArounds            10                       # Number of turnarounds from READ to WRITE
system.mem_ctrl.numWriteReadTurnArounds            10                       # Number of turnarounds from WRITE to READ
system.mem_ctrl.numStayReadState                21673                       # Number of times bus staying in READ state
system.mem_ctrl.numStayWriteState                 162                       # Number of times bus staying in WRITE state
system.mem_ctrl.readReqs                         1785                       # Number of read requests accepted
system.mem_ctrl.writeReqs                         202                       # Number of write requests accepted
system.mem_ctrl.readBursts                       1785                       # Number of DRAM read bursts, including those serviced by the write queue
system.mem_ctrl.writeBursts                       202                       # Number of DRAM write bursts, including those merged in the write queue
system.mem_ctrl.servicedByWrQ                      30                       # Number of DRAM read bursts serviced by the write queue
system.mem_ctrl.mergedWrBursts                      0                       # Number of DRAM write bursts merged with an existing one
system.mem_ctrl.neitherReadNorWriteReqs             0                       # Number of requests that are neither read nor write
system.mem_ctrl.perBankRdBursts::0                109                       # Per bank write bursts
system.mem_ctrl.perBankRdBursts::1                 27                       # Per bank write bursts
system.mem_ctrl.perBankRdBursts::2                  7                       # Per bank write bursts
system.mem_ctrl.perBankRdBursts::3                135                       # Per bank write bursts
system.mem_ctrl.perBankRdBursts::4                214                       # Per bank write bursts
system.mem_ctrl.perBankRdBursts::5                 94                       # Per bank write bursts
system.mem_ctrl.perBankRdBursts::6                314                       # Per bank write bursts
system.mem_ctrl.perBankRdBursts::7                167                       # Per bank write bursts
system.mem_ctrl.perBankRdBursts::8                300                       # Per bank write bursts
system.mem_ctrl.perBankRdBursts::9                178                       # Per bank write bursts
system.mem_ctrl.perBankRdBursts::10                53                       # Per bank write bursts
system.mem_ctrl.perBankRdBursts::11                52                       # Per bank write bursts
system.mem_ctrl.perBankRdBursts::12                10                       # Per bank write bursts
system.mem_ctrl.perBankRdBursts::13                53                       # Per bank write bursts
system.mem_ctrl.perBankRdBursts::14                 7                       # Per bank write bursts
system.mem_ctrl.perBankRdBursts::15                35                       # Per bank write bursts
system.mem_ctrl.perBankWrBursts::0                  0                       # Per bank write bursts
system.mem_ctrl.perBankWrBursts::1                  0                       # Per bank write bursts
system.mem_ctrl.perBankWrBursts::2                  0                       # Per bank write bursts
system.mem_ctrl.perBankWrBursts::3                  7                       # Per bank write bursts
system.mem_ctrl.perBankWrBursts::4                 51                       # Per bank write bursts
system.mem_ctrl.perBankWrBursts::5                 20                       # Per bank write bursts
system.mem_ctrl.perBankWrBursts::6                 37                       # Per bank write bursts
system.mem_ctrl.perBankWrBursts::7                 14                       # Per bank write bursts
system.mem_ctrl.perBankWrBursts::8                 43                       # Per bank write bursts
system.mem_ctrl.perBankWrBursts::9                  0                       # Per bank write bursts
system.mem_ctrl.perBankWrBursts::10                 0                       # Per bank write bursts
system.mem_ctrl.perBankWrBursts::11                 0                       # Per bank write bursts
system.mem_ctrl.perBankWrBursts::12                 0                       # Per bank write bursts
system.mem_ctrl.perBankWrBursts::13                 0                       # Per bank write bursts
system.mem_ctrl.perBankWrBursts::14                 0                       # Per bank write bursts
system.mem_ctrl.perBankWrBursts::15                 0                       # Per bank write bursts
system.mem_ctrl.avgRdQLen                        1.00                       # Average read queue length when enqueuing
system.mem_ctrl.avgWrQLen                       21.99                       # Average write queue length when enqueuing
system.mem_ctrl.totQLat                      13369500                       # Total ticks spent queuing
system.mem_ctrl.totBusLat                     8775000                       # Total ticks spent in databus transfers
system.mem_ctrl.totMemAccLat                 46275750                       # Total ticks spent from burst creation until serviced by the DRAM
system.mem_ctrl.avgQLat                       7617.95                       # Average queueing delay per DRAM burst
system.mem_ctrl.avgBusLat                     5000.00                       # Average bus latency per DRAM burst
system.mem_ctrl.avgMemAccLat                 26367.95                       # Average memory access latency per DRAM burst
system.mem_ctrl.numRdRetry                          0                       # Number of times read queue was full causing retry
system.mem_ctrl.numWrRetry                          0                       # Number of times write queue was full causing retry
system.mem_ctrl.readRowHits                      1373                       # Number of row buffer hits during reads
system.mem_ctrl.writeRowHits                      135                       # Number of row buffer hits during writes
system.mem_ctrl.readRowHitRate                  78.23                       # Row buffer hit rate for reads
system.mem_ctrl.writeRowHitRate                 66.83                       # Row buffer hit rate for writes
system.mem_ctrl.readPktSize::0                      0                       # Read request sizes (log2)
system.mem_ctrl.readPktSize::1                      0                       # Read request sizes (log2)
system.mem_ctrl.readPktSize::2                      0                       # Read request sizes (log2)
system.mem_ctrl.readPktSize::3                      0                       # Read request sizes (log2)
system.mem_ctrl.readPktSize::4                      0                       # Read request sizes (log2)
system.mem_ctrl.readPktSize::5                      0                       # Read request sizes (log2)
system.mem_ctrl.readPktSize::6                   1785                       # Read request sizes (log2)
system.mem_ctrl.writePktSize::0                     0                       # Write request sizes (log2)
system.mem_ctrl.writePktSize::1                     0                       # Write request sizes (log2)
system.mem_ctrl.writePktSize::2                     0                       # Write request sizes (log2)
system.mem_ctrl.writePktSize::3                     0                       # Write request sizes (log2)
system.mem_ctrl.writePktSize::4                     0                       # Write request sizes (log2)
system.mem_ctrl.writePktSize::5                     0                       # Write request sizes (log2)
system.mem_ctrl.writePktSize::6                   202                       # Write request sizes (log2)
system.mem_ctrl.rdQLenPdf::0                     1750                       # What read queue length does an incoming req see
system.mem_ctrl.rdQLenPdf::1                        4                       # What read queue length does an incoming req see
system.mem_ctrl.rdQLenPdf::2                        1                       # What read queue length does an incoming req see
system.mem_ctrl.rdQLenPdf::3                        0                       # What read queue length does an incoming req see
system.mem_ctrl.rdQLenPdf::4                        0                       # What read queue length does an incoming req see
system.mem_ctrl.rdQLenPdf::5                        0                       # What read queue length does an incoming req see
system.mem_ctrl.rdQLenPdf::6                        0                       # What read queue length does an incoming req see
system.mem_ctrl.rdQLenPdf::7                        0                       # What read queue length does an incoming req see
system.mem_ctrl.rdQLenPdf::8                        0                       # What read queue length does an incoming req see
system.mem_ctrl.rdQLenPdf::9                        0                       # What read queue length does an incoming req see
system.mem_ctrl.rdQLenPdf::10                       0                       # What read queue length does an incoming req see
system.mem_ctrl.rdQLenPdf::11                       0                       # What read queue length does an incoming req see
system.mem_ctrl.rdQLenPdf::12                       0                       # What read queue length does an incoming req see
system.mem_ctrl.rdQLenPdf::13                       0                       # What read queue length does an incoming req see
system.mem_ctrl.rdQLenPdf::14                       0                       # What read queue length does an incoming req see
system.mem_ctrl.rdQLenPdf::15                       0                       # What read queue length does an incoming req see
system.mem_ctrl.rdQLenPdf::16                       0                       # What read queue length does an incoming req see
system.mem_ctrl.rdQLenPdf::17                       0                       # What read queue length does an incoming req see
system.mem_ctrl.rdQLenPdf::18                       0                       # What read queue length does an incoming req see
system.mem_ctrl.rdQLenPdf::19                       0                       # What read queue length does an incoming req see
system.mem_ctrl.rdQLenPdf::20                       0                       # What read queue length does an incoming req see
system.mem_ctrl.rdQLenPdf::21                       0                       # What read queue length does an incoming req see
system.mem_ctrl.rdQLenPdf::22                       0                       # What read queue length does an incoming req see
system.mem_ctrl.rdQLenPdf::23                       0                       # What read queue length does an incoming req see
system.mem_ctrl.rdQLenPdf::24                       0                       # What read queue length does an incoming req see
system.mem_ctrl.rdQLenPdf::25                       0                       # What read queue length does an incoming req see
system.mem_ctrl.rdQLenPdf::26                       0                       # What read queue length does an incoming req see
system.mem_ctrl.rdQLenPdf::27                       0                       # What read queue length does an incoming req see
system.mem_ctrl.rdQLenPdf::28                       0                       # What read queue length does an incoming req see
system.mem_ctrl.rdQLenPdf::29                       0                       # What read queue length does an incoming req see
system.mem_ctrl.rdQLenPdf::30                       0                       # What read queue length does an incoming req see
system.mem_ctrl.rdQLenPdf::31                       0                       # What read queue length does an incoming req see
system.mem_ctrl.wrQLenPdf::0                        1                       # What write queue length does an incoming req see
system.mem_ctrl.wrQLenPdf::1                        1                       # What write queue length does an incoming req see
system.mem_ctrl.wrQLenPdf::2                        1                       # What write queue length does an incoming req see
system.mem_ctrl.wrQLenPdf::3                        1                       # What write queue length does an incoming req see
system.mem_ctrl.wrQLenPdf::4                        1                       # What write queue length does an incoming req see
system.mem_ctrl.wrQLenPdf::5                        1                       # What write queue length does an incoming req see
system.mem_ctrl.wrQLenPdf::6                        1                       # What write queue length does an incoming req see
system.mem_ctrl.wrQLenPdf::7                        1                       # What write queue length does an incoming req see
system.mem_ctrl.wrQLenPdf::8                        1                       # What write queue length does an incoming req see
system.mem_ctrl.wrQLenPdf::9                        1                       # What write queue length does an incoming req see
system.mem_ctrl.wrQLenPdf::10                       1                       # What write queue length does an incoming req see
system.mem_ctrl.wrQLenPdf::11                       1                       # What write queue length does an incoming req see
system.mem_ctrl.wrQLenPdf::12                       1                       # What write queue length does an incoming req see
system.mem_ctrl.wrQLenPdf::13                       1                       # What write queue length does an incoming req see
system.mem_ctrl.wrQLenPdf::14                       1                       # What write queue length does an incoming req see
system.mem_ctrl.wrQLenPdf::15                       7                       # What write queue length does an incoming req see
system.mem_ctrl.wrQLenPdf::16                       7                       # What write queue length does an incoming req see
system.mem_ctrl.wrQLenPdf::17                      11                       # What write queue length does an incoming req see
system.mem_ctrl.wrQLenPdf::18                      11                       # What write queue length does an incoming req see
system.mem_ctrl.wrQLenPdf::19                      11                       # What write queue length does an incoming req see
system.mem_ctrl.wrQLenPdf::20                      11                       # What write queue length does an incoming req see
system.mem_ctrl.wrQLenPdf::21                      11                       # What write queue length does an incoming req see
system.mem_ctrl.wrQLenPdf::22                      11                       # What write queue length does an incoming req see
system.mem_ctrl.wrQLenPdf::23                      11                       # What write queue length does an incoming req see
system.mem_ctrl.wrQLenPdf::24                      11                       # What write queue length does an incoming req see
system.mem_ctrl.wrQLenPdf::25                      11                       # What write queue length does an incoming req see
system.mem_ctrl.wrQLenPdf::26                      11                       # What write queue length does an incoming req see
system.mem_ctrl.wrQLenPdf::27                      11                       # What write queue length does an incoming req see
system.mem_ctrl.wrQLenPdf::28                      11                       # What write queue length does an incoming req see
system.mem_ctrl.wrQLenPdf::29                      11                       # What write queue length does an incoming req see
system.mem_ctrl.wrQLenPdf::30                      10                       # What write queue length does an incoming req see
system.mem_ctrl.wrQLenPdf::31                      10                       # What write queue length does an incoming req see
system.mem_ctrl.wrQLenPdf::32                      10                       # What write queue length does an incoming req see
system.mem_ctrl.wrQLenPdf::33                       0                       # What write queue length does an incoming req see
system.mem_ctrl.wrQLenPdf::34                       0                       # What write queue length does an incoming req see
system.mem_ctrl.wrQLenPdf::35                       0                       # What write queue length does an incoming req see
system.mem_ctrl.wrQLenPdf::36                       0                       # What write queue length does an incoming req see
system.mem_ctrl.wrQLenPdf::37                       0                       # What write queue length does an incoming req see
system.mem_ctrl.wrQLenPdf::38                       0                       # What write queue length does an incoming req see
system.mem_ctrl.wrQLenPdf::39                       0                       # What write queue length does an incoming req see
system.mem_ctrl.wrQLenPdf::40                       0                       # What write queue length does an incoming req see
system.mem_ctrl.wrQLenPdf::41                       0                       # What write queue length does an incoming req see
system.mem_ctrl.wrQLenPdf::42                       0                       # What write queue length does an incoming req see
system.mem_ctrl.wrQLenPdf::43                       0                       # What write queue length does an incoming req see
system.mem_ctrl.wrQLenPdf::44                       0                       # What write queue length does an incoming req see
system.mem_ctrl.wrQLenPdf::45                       0                       # What write queue length does an incoming req see
system.mem_ctrl.wrQLenPdf::46                       0                       # What write queue length does an incoming req see
system.mem_ctrl.wrQLenPdf::47                       0                       # What write queue length does an incoming req see
system.mem_ctrl.wrQLenPdf::48                       0                       # What write queue length does an incoming req see
system.mem_ctrl.wrQLenPdf::49                       0                       # What write queue length does an incoming req see
system.mem_ctrl.wrQLenPdf::50                       0                       # What write queue length does an incoming req see
system.mem_ctrl.wrQLenPdf::51                       0                       # What write queue length does an incoming req see
system.mem_ctrl.wrQLenPdf::52                       0                       # What write queue length does an incoming req see
system.mem_ctrl.wrQLenPdf::53                       0                       # What write queue length does an incoming req see
system.mem_ctrl.wrQLenPdf::54                       0                       # What write queue length does an incoming req see
system.mem_ctrl.wrQLenPdf::55                       0                       # What write queue length does an incoming req see
system.mem_ctrl.wrQLenPdf::56                       0                       # What write queue length does an incoming req see
system.mem_ctrl.wrQLenPdf::57                       0                       # What write queue length does an incoming req see
system.mem_ctrl.wrQLenPdf::58                       0                       # What write queue length does an incoming req see
system.mem_ctrl.wrQLenPdf::59                       0                       # What write queue length does an incoming req see
system.mem_ctrl.wrQLenPdf::60                       0                       # What write queue length does an incoming req see
system.mem_ctrl.wrQLenPdf::61                       0                       # What write queue length does an incoming req see
system.mem_ctrl.wrQLenPdf::62                       0                       # What write queue length does an incoming req see
system.mem_ctrl.wrQLenPdf::63                       0                       # What write queue length does an incoming req see
system.mem_ctrl.bytesPerActivate::samples          417                       # Bytes accessed per row activation
system.mem_ctrl.bytesPerActivate::mean     293.601918                       # Bytes accessed per row activation
system.mem_ctrl.bytesPerActivate::gmean    192.319798                       # Bytes accessed per row activation
system.mem_ctrl.bytesPerActivate::stdev    284.855572                       # Bytes accessed per row activation
system.mem_ctrl.bytesPerActivate::0-127           120     28.78%     28.78% # Bytes accessed per row activation
system.mem_ctrl.bytesPerActivate::128-255          123     29.50%     58.27% # Bytes accessed per row activation
system.mem_ctrl.bytesPerActivate::256-383           62     14.87%     73.14% # Bytes accessed per row activation
system.mem_ctrl.bytesPerActivate::384-511           36      8.63%     81.77% # Bytes accessed per row activation
system.mem_ctrl.bytesPerActivate::512-639           11      2.64%     84.41% # Bytes accessed per row activation
system.mem_ctrl.bytesPerActivate::640-767           19      4.56%     88.97% # Bytes accessed per row activation
system.mem_ctrl.bytesPerActivate::768-895            9      2.16%     91.13% # Bytes accessed per row activation
system.mem_ctrl.bytesPerActivate::896-1023           10      2.40%     93.53% # Bytes accessed per row activation
system.mem_ctrl.bytesPerActivate::1024-1151           27      6.47%    100.00% # Bytes accessed per row activation
system.mem_ctrl.bytesPerActivate::total           417                       # Bytes accessed per row activation
system.mem_ctrl.rdPerTurnAround::samples           10                       # Reads before turning the bus around for writes
system.mem_ctrl.rdPerTurnAround::mean      172.200000                       # Reads before turning the bus around for writes
system.mem_ctrl.rdPerTurnAround::gmean      88.365895                       # Reads before turning the bus around for writes
system.mem_ctrl.rdPerTurnAround::stdev     301.558839                       # Reads before turning the bus around for writes
system.mem_ctrl.rdPerTurnAround::0-31               1     10.00%     10.00% # Reads before turning the bus around for writes
system.mem_ctrl.rdPerTurnAround::32-63              3     30.00%     40.00% # Reads before turning the bus around for writes
system.mem_ctrl.rdPerTurnAround::64-95              3     30.00%     70.00% # Reads before turning the bus around for writes
system.mem_ctrl.rdPerTurnAround::96-127             1     10.00%     80.00% # Reads before turning the bus around for writes
system.mem_ctrl.rdPerTurnAround::160-191            1     10.00%     90.00% # Reads before turning the bus around for writes
system.mem_ctrl.rdPerTurnAround::992-1023            1     10.00%    100.00% # Reads before turning the bus around for writes
system.mem_ctrl.rdPerTurnAround::total             10                       # Reads before turning the bus around for writes
system.mem_ctrl.wrPerTurnAround::samples           10                       # Writes before turning the bus around for reads
system.mem_ctrl.wrPerTurnAround::mean       17.200000                       # Writes before turning the bus around for reads
system.mem_ctrl.wrPerTurnAround::gmean      17.171629                       # Writes before turning the bus around for reads
system.mem_ctrl.wrPerTurnAround::stdev       1.032796                       # Writes before turning the bus around for reads
system.mem_ctrl.wrPerTurnAround::16                 4     40.00%     40.00% # Writes before turning the bus around for reads
system.mem_ctrl.wrPerTurnAround::18                 6     60.00%    100.00% # Writes before turning the bus around for reads
system.mem_ctrl.wrPerTurnAround::total             10                       # Writes before turning the bus around for reads
system.mem_ctrl.bytesReadDRAM                  112320                       # Total number of bytes read from DRAM
system.mem_ctrl.bytesReadWrQ                     1920                       # Total number of bytes read from write queue
system.mem_ctrl.bytesWritten                    11008                       # Total number of bytes written to DRAM
system.mem_ctrl.bytesReadSys                   114240                       # Total read bytes from the system interface side
system.mem_ctrl.bytesWrittenSys                 12928                       # Total written bytes from the system interface side
system.mem_ctrl.avgRdBW                          1.61                       # Average DRAM read bandwidth in MiByte/s
system.mem_ctrl.avgWrBW                          0.16                       # Average achieved write bandwidth in MiByte/s
system.mem_ctrl.avgRdBWSys                       1.63                       # Average system read bandwidth in MiByte/s
system.mem_ctrl.avgWrBWSys                       0.18                       # Average system write bandwidth in MiByte/s
system.mem_ctrl.peakBW                       12800.00                       # Theoretical peak bandwidth in MiByte/s
system.mem_ctrl.busUtil                          0.01                       # Data bus utilization in percentage
system.mem_ctrl.busUtilRead                      0.01                       # Data bus utilization in percentage for reads
system.mem_ctrl.busUtilWrite                     0.00                       # Data bus utilization in percentage for writes
system.mem_ctrl.totGap                    69946413000                       # Total gap between requests
system.mem_ctrl.avgGap                    35202019.63                       # Average gap between requests
system.mem_ctrl.masterReadBytes::.cpu.inst        48128                       # Per-master bytes read from memory
system.mem_ctrl.masterReadBytes::.cpu.data        64192                       # Per-master bytes read from memory
system.mem_ctrl.masterWriteBytes::.writebacks        11008                       # Per-master bytes write to memory
system.mem_ctrl.masterReadRate::.cpu.inst 688068.384115547873                       # Per-master bytes read from memory rate (Bytes/sec)
system.mem_ctrl.masterReadRate::.cpu.data 917729.507005178835                       # Per-master bytes read from memory rate (Bytes/sec)
system.mem_ctrl.masterWriteRate::.writebacks 157377.343175364687                       # Per-master bytes write to memory rate (Bytes/sec)
system.mem_ctrl.masterReadAccesses::.cpu.inst          752                       # Per-master read serviced memory accesses
system.mem_ctrl.masterReadAccesses::.cpu.data         1033                       # Per-master read serviced memory accesses
system.mem_ctrl.masterWriteAccesses::.writebacks          202                       # Per-master write serviced memory accesses
system.mem_ctrl.masterReadTotalLat::.cpu.inst     20227750                       # Per-master read total memory access latency
system.mem_ctrl.masterReadTotalLat::.cpu.data     26048000                       # Per-master read total memory access latency
system.mem_ctrl.masterWriteTotalLat::.writebacks 1537455806000                       # Per-master write total memory access latency
system.mem_ctrl.masterReadAvgLat::.cpu.inst     26898.60                       # Per-master read average memory access latency
system.mem_ctrl.masterReadAvgLat::.cpu.data     25215.88                       # Per-master read average memory access latency
system.mem_ctrl.masterWriteAvgLat::.writebacks 7611167356.44                       # Per-master write average memory access latency
system.mem_ctrl.pageHitRate                     77.06                       # Row buffer hit rate, read and write combined
system.mem_ctrl.rank1.actEnergy                992460                       # Energy for activate commands per rank (pJ)
system.mem_ctrl.rank1.preEnergy                527505                       # Energy for precharge commands per rank (pJ)
system.mem_ctrl.rank1.readEnergy              4912320                       # Energy for read commands per rank (pJ)
system.mem_ctrl.rank1.writeEnergy              224460                       # Energy for write commands per rank (pJ)
system.mem_ctrl.rank1.refreshEnergy      5521311120.000001                       # Energy for refresh commands per rank (pJ)
system.mem_ctrl.rank1.actBackEnergy        1146690660                       # Energy for active background per rank (pJ)
system.mem_ctrl.rank1.preBackEnergy       25893835680                       # Energy for precharge background per rank (pJ)
system.mem_ctrl.rank1.actPowerDownEnergy            0                       # Energy for active power-down per rank (pJ)
system.mem_ctrl.rank1.prePowerDownEnergy            0                       # Energy for precharge power-down per rank (pJ)
system.mem_ctrl.rank1.selfRefreshEnergy             0                       # Energy for self refresh per rank (pJ)
system.mem_ctrl.rank1.totalEnergy         32568494205                       # Total energy per rank (pJ)
system.mem_ctrl.rank1.averagePower         465.619830                       # Core power per rank (mW)
system.mem_ctrl.rank1.totalIdleTime                 0                       # Total Idle time Per DRAM Rank
system.mem_ctrl.rank1.memoryStateTime::IDLE  67307561500                       # Time in different power states
system.mem_ctrl.rank1.memoryStateTime::REF   2335580000                       # Time in different power states
system.mem_ctrl.rank1.memoryStateTime::SREF            0                       # Time in different power states
system.mem_ctrl.rank1.memoryStateTime::PRE_PDN            0                       # Time in different power states
system.mem_ctrl.rank1.memoryStateTime::ACT    303394500                       # Time in different power states
system.mem_ctrl.rank1.memoryStateTime::ACT_PDN            0                       # Time in different power states
system.mem_ctrl.rank0.actEnergy               1999200                       # Energy for activate commands per rank (pJ)
system.mem_ctrl.rank0.preEnergy               1055010                       # Energy for precharge commands per rank (pJ)
system.mem_ctrl.rank0.readEnergy              7618380                       # Energy for read commands per rank (pJ)
system.mem_ctrl.rank0.writeEnergy              673380                       # Energy for write commands per rank (pJ)
system.mem_ctrl.rank0.refreshEnergy      5521311120.000001                       # Energy for refresh commands per rank (pJ)
system.mem_ctrl.rank0.actBackEnergy        1114049610                       # Energy for active background per rank (pJ)
system.mem_ctrl.rank0.preBackEnergy       25921322880                       # Energy for precharge background per rank (pJ)
system.mem_ctrl.rank0.actPowerDownEnergy            0                       # Energy for active power-down per rank (pJ)
system.mem_ctrl.rank0.prePowerDownEnergy            0                       # Energy for precharge power-down per rank (pJ)
system.mem_ctrl.rank0.selfRefreshEnergy             0                       # Energy for self refresh per rank (pJ)
system.mem_ctrl.rank0.totalEnergy         32568029580                       # Total energy per rank (pJ)
system.mem_ctrl.rank0.averagePower         465.613187                       # Core power per rank (mW)
system.mem_ctrl.rank0.totalIdleTime                 0                       # Total Idle time Per DRAM Rank
system.mem_ctrl.rank0.memoryStateTime::IDLE  67379356500                       # Time in different power states
system.mem_ctrl.rank0.memoryStateTime::REF   2335580000                       # Time in different power states
system.mem_ctrl.rank0.memoryStateTime::SREF            0                       # Time in different power states
system.mem_ctrl.rank0.memoryStateTime::PRE_PDN            0                       # Time in different power states
system.mem_ctrl.rank0.memoryStateTime::ACT    231599500                       # Time in different power states
system.mem_ctrl.rank0.memoryStateTime::ACT_PDN            0                       # Time in different power states
system.mem_ctrl.power_state.pwrStateResidencyTicks::UNDEFINED  69946536000                       # Cumulative time (in ticks) in various power states

---------- End Simulation Statistics   ----------
