
---------- Begin Simulation Statistics ----------
final_tick                                69960706000                       # Number of ticks from beginning of simulation (restored from checkpoints and never reset)
host_inst_rate                                 501819                       # Simulator instruction rate (inst/s)
host_mem_usage                                 681148                       # Number of bytes of host memory used
host_op_rate                                   887996                       # Simulator op (including micro ops) rate (op/s)
host_seconds                                    48.44                       # Real time elapsed on the host
host_tick_rate                             1444256686                       # Simulator tick rate (ticks/s)
sim_freq                                 1000000000000                       # Frequency of simulated ticks
sim_insts                                    24308337                       # Number of instructions simulated
sim_ops                                      43015049                       # Number of ops (including micro ops) simulated
sim_seconds                                  0.069961                       # Number of seconds simulated
sim_ticks                                 69960706000                       # Number of ticks simulated
system.cpu.Branches                           1784668                       # Number of branches fetched
system.cpu.committedInsts                    24308337                       # Number of instructions committed
system.cpu.committedOps                      43015049                       # Number of ops (including micro ops) committed
system.cpu.dtb.rdAccesses                     5153372                       # TLB accesses on read requests
system.cpu.dtb.rdMisses                            17                       # TLB misses on read requests
system.cpu.dtb.wrAccesses                       67138                       # TLB accesses on write requests
system.cpu.dtb.wrMisses                            27                       # TLB misses on write requests
system.cpu.idle_fraction                     0.000000                       # Percentage of idle cycles
system.cpu.itb.rdAccesses                           0                       # TLB accesses on read requests
system.cpu.itb.rdMisses                             0                       # TLB misses on read requests
system.cpu.itb.wrAccesses                    29675467                       # TLB accesses on write requests
system.cpu.itb.wrMisses                            55                       # TLB misses on write requests
system.cpu.not_idle_fraction                 1.000000                       # Percentage of non-idle cycles
system.cpu.numCycles                         69960706                       # number of cpu cycles simulated
system.cpu.numWorkItemsCompleted                    0                       # number of work items this cpu completed
system.cpu.numWorkItemsStarted                      0                       # number of work items this cpu started
system.cpu.num_busy_cycles               69960705.999000                       # Number of busy cycles
system.cpu.num_cc_register_reads              9220062                       # number of times the CC registers were read
system.cpu.num_cc_register_writes            23716768                       # number of times the CC registers were written
system.cpu.num_conditional_control_insts      1772711                       # number of instructions that are conditional controls
system.cpu.num_fp_alu_accesses                  88188                       # Number of float alu accesses
system.cpu.num_fp_insts                         88188                       # number of float instructions
system.cpu.num_fp_register_reads               138104                       # number of times the floating registers were read
system.cpu.num_fp_register_writes               76749                       # number of times the floating registers were written
system.cpu.num_func_calls                        3652                       # number of times a function call or return occured
system.cpu.num_idle_cycles                   0.001000                       # Number of idle cycles
system.cpu.num_int_alu_accesses              42832511                       # Number of integer alu accesses
system.cpu.num_int_insts                     42832511                       # number of integer instructions
system.cpu.num_int_register_reads            84419046                       # number of times the integer registers were read
system.cpu.num_int_register_writes           44342654                       # number of times the integer registers were written
system.cpu.num_load_insts                     5153143                       # Number of load instructions
system.cpu.num_mem_refs                       5220060                       # number of memory refs
system.cpu.num_store_insts                      66917                       # Number of store instructions
system.cpu.num_vec_alu_accesses                     0                       # Number of vector alu accesses
system.cpu.num_vec_insts                            0                       # number of vector instructions
system.cpu.num_vec_register_reads                   0                       # number of times the vector registers were read
system.cpu.num_vec_register_writes                  0                       # number of times the vector registers were written
system.cpu.op_class::No_OpClass                123874      0.29%      0.29% # Class of executed instruction
system.cpu.op_class::IntAlu                  34300725     79.74%     80.03% # Class of executed instruction
system.cpu.op_class::IntMult                  3272661      7.61%     87.64% # Class of executed instruction
system.cpu.op_class::IntDiv                     50585      0.12%     87.75% # Class of executed instruction
system.cpu.op_class::FloatAdd                    8129      0.02%     87.77% # Class of executed instruction
system.cpu.op_class::FloatCmp                       0      0.00%     87.77% # Class of executed instruction
system.cpu.op_class::FloatCvt                       0      0.00%     87.77% # Class of executed instruction
system.cpu.op_class::FloatMult                      0      0.00%     87.77% # Class of executed instruction
system.cpu.op_class::FloatMultAcc                   0      0.00%     87.77% # Class of executed instruction
system.cpu.op_class::FloatDiv                       0      0.00%     87.77% # Class of executed instruction
system.cpu.op_class::FloatMisc                      0      0.00%     87.77% # Class of executed instruction
system.cpu.op_class::FloatSqrt                      0      0.00%     87.77% # Class of executed instruction
system.cpu.op_class::SimdAdd                      374      0.00%     87.77% # Class of executed instruction
system.cpu.op_class::SimdAddAcc                     0      0.00%     87.77% # Class of executed instruction
system.cpu.op_class::SimdAlu                     4064      0.01%     87.78% # Class of executed instruction
system.cpu.op_class::SimdCmp                        0      0.00%     87.78% # Class of executed instruction
system.cpu.op_class::SimdCvt                      128      0.00%     87.78% # Class of executed instruction
system.cpu.op_class::SimdMisc                    5418      0.01%     87.80% # Class of executed instruction
system.cpu.op_class::SimdMult                       0      0.00%     87.80% # Class of executed instruction
system.cpu.op_class::SimdMultAcc                    0      0.00%     87.80% # Class of executed instruction
system.cpu.op_class::SimdShift                    186      0.00%     87.80% # Class of executed instruction
system.cpu.op_class::SimdShiftAcc                   0      0.00%     87.80% # Class of executed instruction
system.cpu.op_class::SimdDiv                        0      0.00%     87.80% # Class of executed instruction
system.cpu.op_class::SimdSqrt                       0      0.00%     87.80% # Class of executed instruction
system.cpu.op_class::SimdFloatAdd               12512      0.03%     87.82% # Class of executed instruction
system.cpu.op_class::SimdFloatAlu                   0      0.00%     87.82% # Class of executed instruction
system.cpu.op_class::SimdFloatCmp                   0      0.00%     87.82% # Class of executed instruction
system.cpu.op_class::SimdFloatCvt                4945      0.01%     87.84% # Class of executed instruction
system.cpu.op_class::SimdFloatDiv                 738      0.00%     87.84% # Class of executed instruction
system.cpu.op_class::SimdFloatMisc                  0      0.00%     87.84% # Class of executed instruction
system.cpu.op_class::SimdFloatMult              11557      0.03%     87.86% # Class of executed instruction
system.cpu.op_class::SimdFloatMultAcc               0      0.00%     87.86% # Class of executed instruction
system.cpu.op_class::SimdFloatSqrt                  0      0.00%     87.86% # Class of executed instruction
system.cpu.op_class::SimdReduceAdd                  0      0.00%     87.86% # Class of executed instruction
system.cpu.op_class::SimdReduceAlu                  0      0.00%     87.86% # Class of executed instruction
system.cpu.op_class::SimdReduceCmp                  0      0.00%     87.86% # Class of executed instruction
system.cpu.op_class::SimdFloatReduceAdd             0      0.00%     87.86% # Class of executed instruction
system.cpu.op_class::SimdFloatReduceCmp             0      0.00%     87.86% # Class of executed instruction
system.cpu.op_class::SimdAes                        0      0.00%     87.86% # Class of executed instruction
system.cpu.op_class::SimdAesMix                     0      0.00%     87.86% # Class of executed instruction
system.cpu.op_class::SimdSha1Hash                   0      0.00%     87.86% # Class of executed instruction
system.cpu.op_class::SimdSha1Hash2                  0      0.00%     87.86% # Class of executed instruction
system.cpu.op_class::SimdSha256Hash                 0      0.00%     87.86% # Class of executed instruction
system.cpu.op_class::SimdSha256Hash2                0      0.00%     87.86% # Class of executed instruction
system.cpu.op_class::SimdShaSigma2                  0      0.00%     87.86% # Class of executed instruction
system.cpu.op_class::SimdShaSigma3                  0      0.00%     87.86% # Class of executed instruction
system.cpu.op_class::SimdPredAlu                    0      0.00%     87.86% # Class of executed instruction
system.cpu.op_class::MemRead                  5134469     11.94%     99.80% # Class of executed instruction
system.cpu.op_class::MemWrite                   62176      0.14%     99.95% # Class of executed instruction
system.cpu.op_class::FloatMemRead               18674      0.04%     99.99% # Class of executed instruction
system.cpu.op_class::FloatMemWrite               4741      0.01%    100.00% # Class of executed instruction
system.cpu.op_class::IprAccess                      0      0.00%    100.00% # Class of executed instruction
system.cpu.op_class::InstPrefetch                   0      0.00%    100.00% # Class of executed instruction
system.cpu.op_class::total                   43015956                       # Class of executed instruction
system.cpu.workload.numSyscalls                    17                       # Number of system calls
system.l2bus.snoop_filter.hit_multi_requests            1                       # Number of requests hitting in the snoop filter with multiple (>1) holders of the requested data.
system.l2bus.snoop_filter.hit_multi_snoops            0                       # Number of snoops hitting in the snoop filter with multiple (>1) holders of the requested data.
system.l2bus.snoop_filter.hit_single_requests         2898                       # Number of requests hitting in the snoop filter with a single holder of the requested data.
system.l2bus.snoop_filter.hit_single_snoops         2757                       # Number of snoops hitting in the snoop filter with a single holder of the requested data.
system.l2bus.snoop_filter.tot_requests           6305                       # Total number of requests made to the snoop filter.
system.l2bus.snoop_filter.tot_snoops             2757                       # Total number of snoops made to the snoop filter.
system.membus.snoop_filter.hit_multi_requests            0                       # Number of requests hitting in the snoop filter with multiple (>1) holders of the requested data.
system.membus.snoop_filter.hit_multi_snoops            0                       # Number of snoops hitting in the snoop filter with multiple (>1) holders of the requested data.
system.membus.snoop_filter.hit_single_requests         1424                       # Number of requests hitting in the snoop filter with a single holder of the requested data.
system.membus.snoop_filter.hit_single_snoops            0                       # Number of snoops hitting in the snoop filter with a single holder of the requested data.
system.membus.snoop_filter.tot_requests          3456                       # Total number of requests made to the snoop filter.
system.membus.snoop_filter.tot_snoops               0                       # Total number of snoops made to the snoop filter.
system.membus.trans_dist::ReadResp               1463                       # Transaction distribution
system.membus.trans_dist::WritebackDirty          354                       # Transaction distribution
system.membus.trans_dist::CleanEvict             1069                       # Transaction distribution
system.membus.trans_dist::ReadExReq               570                       # Transaction distribution
system.membus.trans_dist::ReadExResp              570                       # Transaction distribution
system.membus.trans_dist::ReadSharedReq          1463                       # Transaction distribution
system.membus.pkt_count_system.l2cache.mem_side::system.mem_ctrl.port         5489                       # Packet count per connected master and slave (bytes)
system.membus.pkt_count_system.l2cache.mem_side::total         5489                       # Packet count per connected master and slave (bytes)
system.membus.pkt_count::total                   5489                       # Packet count per connected master and slave (bytes)
system.membus.pkt_size_system.l2cache.mem_side::system.mem_ctrl.port       152768                       # Cumulative packet size per connected master and slave (bytes)
system.membus.pkt_size_system.l2cache.mem_side::total       152768                       # Cumulative packet size per connected master and slave (bytes)
system.membus.pkt_size::total                  152768                       # Cumulative packet size per connected master and slave (bytes)
system.membus.snoops                                0                       # Total snoops (count)
system.membus.snoopTraffic                          0                       # Total snoop traffic (bytes)
system.membus.snoop_fanout::samples              2033                       # Request fanout histogram
system.membus.snoop_fanout::mean                    0                       # Request fanout histogram
system.membus.snoop_fanout::stdev                   0                       # Request fanout histogram
system.membus.snoop_fanout::underflows              0      0.00%      0.00% # Request fanout histogram
system.membus.snoop_fanout::0                    2033    100.00%    100.00% # Request fanout histogram
system.membus.snoop_fanout::1                       0      0.00%    100.00% # Request fanout histogram
system.membus.snoop_fanout::overflows               0      0.00%    100.00% # Request fanout histogram
system.membus.snoop_fanout::min_value               0                       # Request fanout histogram
system.membus.snoop_fanout::max_value               0                       # Request fanout histogram
system.membus.snoop_fanout::total                2033                       # Request fanout histogram
system.membus.reqLayer0.occupancy             4872000                       # Layer occupancy (ticks)
system.membus.reqLayer0.utilization               0.0                       # Layer utilization (%)
system.membus.respLayer0.occupancy           10791250                       # Layer occupancy (ticks)
system.membus.respLayer0.utilization              0.0                       # Layer utilization (%)
system.membus.power_state.pwrStateResidencyTicks::UNDEFINED  69960706000                       # Cumulative time (in ticks) in various power states
system.l2bus.trans_dist::ReadResp                2360                       # Transaction distribution
system.l2bus.trans_dist::WritebackDirty          2115                       # Transaction distribution
system.l2bus.trans_dist::CleanEvict              4004                       # Transaction distribution
system.l2bus.trans_dist::ReadExReq               1047                       # Transaction distribution
system.l2bus.trans_dist::ReadExResp              1047                       # Transaction distribution
system.l2bus.trans_dist::ReadSharedReq           2360                       # Transaction distribution
system.l2bus.pkt_count_system.cpu.icache.mem_side::system.l2cache.cpu_side         2069                       # Packet count per connected master and slave (bytes)
system.l2bus.pkt_count_system.cpu.dcache.mem_side::system.l2cache.cpu_side         7643                       # Packet count per connected master and slave (bytes)
system.l2bus.pkt_count::total                    9712                       # Packet count per connected master and slave (bytes)
system.l2bus.pkt_size_system.cpu.icache.mem_side::system.l2cache.cpu_side        49536                       # Cumulative packet size per connected master and slave (bytes)
system.l2bus.pkt_size_system.cpu.dcache.mem_side::system.l2cache.cpu_side       281216                       # Cumulative packet size per connected master and slave (bytes)
system.l2bus.pkt_size::total                   330752                       # Cumulative packet size per connected master and slave (bytes)
system.l2bus.snoops                              3221                       # Total snoops (count)
system.l2bus.snoopTraffic                       22656                       # Total snoop traffic (bytes)
system.l2bus.snoop_fanout::samples               6628                       # Request fanout histogram
system.l2bus.snoop_fanout::mean              0.416113                       # Request fanout histogram
system.l2bus.snoop_fanout::stdev             0.492950                       # Request fanout histogram
system.l2bus.snoop_fanout::underflows               0      0.00%      0.00% # Request fanout histogram
system.l2bus.snoop_fanout::0                     3870     58.39%     58.39% # Request fanout histogram
system.l2bus.snoop_fanout::1                     2758     41.61%    100.00% # Request fanout histogram
system.l2bus.snoop_fanout::2                        0      0.00%    100.00% # Request fanout histogram
system.l2bus.snoop_fanout::overflows                0      0.00%    100.00% # Request fanout histogram
system.l2bus.snoop_fanout::min_value                0                       # Request fanout histogram
system.l2bus.snoop_fanout::max_value                1                       # Request fanout histogram
system.l2bus.snoop_fanout::total                 6628                       # Request fanout histogram
system.l2bus.reqLayer0.occupancy              9827000                       # Layer occupancy (ticks)
system.l2bus.reqLayer0.utilization                0.0                       # Layer utilization (%)
system.l2bus.respLayer1.occupancy             7899000                       # Layer occupancy (ticks)
system.l2bus.respLayer1.utilization               0.0                       # Layer utilization (%)
system.l2bus.respLayer0.occupancy             2322000                       # Layer occupancy (ticks)
system.l2bus.respLayer0.utilization               0.0                       # Layer utilization (%)
system.l2bus.power_state.pwrStateResidencyTicks::UNDEFINED  69960706000                       # Cumulative time (in ticks) in various power states
system.clk_domain.clock                          1000                       # Clock period in ticks
system.clk_domain.voltage_domain.voltage            1                       # Voltage in Volts
system.cpu.icache.demand_hits::.cpu.inst     29674693                       # number of demand (read+write) hits
system.cpu.icache.demand_hits::total         29674693                       # number of demand (read+write) hits
system.cpu.icache.overall_hits::.cpu.inst     29674693                       # number of overall hits
system.cpu.icache.overall_hits::total        29674693                       # number of overall hits
system.cpu.icache.demand_misses::.cpu.inst          774                       # number of demand (read+write) misses
system.cpu.icache.demand_misses::total            774                       # number of demand (read+write) misses
system.cpu.icache.overall_misses::.cpu.inst          774                       # number of overall misses
system.cpu.icache.overall_misses::total           774                       # number of overall misses
system.cpu.icache.demand_miss_latency::.cpu.inst     64358000                       # number of demand (read+write) miss cycles
system.cpu.icache.demand_miss_latency::total     64358000                       # number of demand (read+write) miss cycles
system.cpu.icache.overall_miss_latency::.cpu.inst     64358000                       # number of overall miss cycles
system.cpu.icache.overall_miss_latency::total     64358000                       # number of overall miss cycles
system.cpu.icache.demand_accesses::.cpu.inst     29675467                       # number of demand (read+write) accesses
system.cpu.icache.demand_accesses::total     29675467                       # number of demand (read+write) accesses
system.cpu.icache.overall_accesses::.cpu.inst     29675467                       # number of overall (read+write) accesses
system.cpu.icache.overall_accesses::total     29675467                       # number of overall (read+write) accesses
system.cpu.icache.demand_miss_rate::.cpu.inst     0.000026                       # miss rate for demand accesses
system.cpu.icache.demand_miss_rate::total     0.000026                       # miss rate for demand accesses
system.cpu.icache.overall_miss_rate::.cpu.inst     0.000026                       # miss rate for overall accesses
system.cpu.icache.overall_miss_rate::total     0.000026                       # miss rate for overall accesses
system.cpu.icache.demand_avg_miss_latency::.cpu.inst 83149.870801                       # average overall miss latency
system.cpu.icache.demand_avg_miss_latency::total 83149.870801                       # average overall miss latency
system.cpu.icache.overall_avg_miss_latency::.cpu.inst 83149.870801                       # average overall miss latency
system.cpu.icache.overall_avg_miss_latency::total 83149.870801                       # average overall miss latency
system.cpu.icache.blocked_cycles::no_mshrs            0                       # number of cycles access was blocked
system.cpu.icache.blocked_cycles::no_targets            0                       # number of cycles access was blocked
system.cpu.icache.blocked::no_mshrs                 0                       # number of cycles access was blocked
system.cpu.icache.blocked::no_targets               0                       # number of cycles access was blocked
system.cpu.icache.avg_blocked_cycles::no_mshrs          nan                       # average number of cycles each access was blocked
system.cpu.icache.avg_blocked_cycles::no_targets          nan                       # average number of cycles each access was blocked
system.cpu.icache.demand_mshr_misses::.cpu.inst          774                       # number of demand (read+write) MSHR misses
system.cpu.icache.demand_mshr_misses::total          774                       # number of demand (read+write) MSHR misses
system.cpu.icache.overall_mshr_misses::.cpu.inst          774                       # number of overall MSHR misses
system.cpu.icache.overall_mshr_misses::total          774                       # number of overall MSHR misses
system.cpu.icache.demand_mshr_miss_latency::.cpu.inst     62810000                       # number of demand (read+write) MSHR miss cycles
system.cpu.icache.demand_mshr_miss_latency::total     62810000                       # number of demand (read+write) MSHR miss cycles
system.cpu.icache.overall_mshr_miss_latency::.cpu.inst     62810000                       # number of overall MSHR miss cycles
system.cpu.icache.overall_mshr_miss_latency::total     62810000                       # number of overall MSHR miss cycles
system.cpu.icache.demand_mshr_miss_rate::.cpu.inst     0.000026                       # mshr miss rate for demand accesses
system.cpu.icache.demand_mshr_miss_rate::total     0.000026                       # mshr miss rate for demand accesses
system.cpu.icache.overall_mshr_miss_rate::.cpu.inst     0.000026                       # mshr miss rate for overall accesses
system.cpu.icache.overall_mshr_miss_rate::total     0.000026                       # mshr miss rate for overall accesses
system.cpu.icache.demand_avg_mshr_miss_latency::.cpu.inst 81149.870801                       # average overall mshr miss latency
system.cpu.icache.demand_avg_mshr_miss_latency::total 81149.870801                       # average overall mshr miss latency
system.cpu.icache.overall_avg_mshr_miss_latency::.cpu.inst 81149.870801                       # average overall mshr miss latency
system.cpu.icache.overall_avg_mshr_miss_latency::total 81149.870801                       # average overall mshr miss latency
system.cpu.icache.replacements                    521                       # number of replacements
system.cpu.icache.ReadReq_hits::.cpu.inst     29674693                       # number of ReadReq hits
system.cpu.icache.ReadReq_hits::total        29674693                       # number of ReadReq hits
system.cpu.icache.ReadReq_misses::.cpu.inst          774                       # number of ReadReq misses
system.cpu.icache.ReadReq_misses::total           774                       # number of ReadReq misses
system.cpu.icache.ReadReq_miss_latency::.cpu.inst     64358000                       # number of ReadReq miss cycles
system.cpu.icache.ReadReq_miss_latency::total     64358000                       # number of ReadReq miss cycles
system.cpu.icache.ReadReq_accesses::.cpu.inst     29675467                       # number of ReadReq accesses(hits+misses)
system.cpu.icache.ReadReq_accesses::total     29675467                       # number of ReadReq accesses(hits+misses)
system.cpu.icache.ReadReq_miss_rate::.cpu.inst     0.000026                       # miss rate for ReadReq accesses
system.cpu.icache.ReadReq_miss_rate::total     0.000026                       # miss rate for ReadReq accesses
system.cpu.icache.ReadReq_avg_miss_latency::.cpu.inst 83149.870801                       # average ReadReq miss latency
system.cpu.icache.ReadReq_avg_miss_latency::total 83149.870801                       # average ReadReq miss latency
system.cpu.icache.ReadReq_mshr_misses::.cpu.inst          774                       # number of ReadReq MSHR misses
system.cpu.icache.ReadReq_mshr_misses::total          774                       # number of ReadReq MSHR misses
system.cpu.icache.ReadReq_mshr_miss_latency::.cpu.inst     62810000                       # number of ReadReq MSHR miss cycles
system.cpu.icache.ReadReq_mshr_miss_latency::total     62810000                       # number of ReadReq MSHR miss cycles
system.cpu.icache.ReadReq_mshr_miss_rate::.cpu.inst     0.000026                       # mshr miss rate for ReadReq accesses
system.cpu.icache.ReadReq_mshr_miss_rate::total     0.000026                       # mshr miss rate for ReadReq accesses
system.cpu.icache.ReadReq_avg_mshr_miss_latency::.cpu.inst 81149.870801                       # average ReadReq mshr miss latency
system.cpu.icache.ReadReq_avg_mshr_miss_latency::total 81149.870801                       # average ReadReq mshr miss latency
system.cpu.icache.power_state.pwrStateResidencyTicks::UNDEFINED  69960706000                       # Cumulative time (in ticks) in various power states
system.cpu.icache.tags.tagsinuse           251.843325                       # Cycle average of tags in use
system.cpu.icache.tags.total_refs            29675467                       # Total number of references to valid blocks.
system.cpu.icache.tags.sampled_refs               774                       # Sample count of references to valid blocks.
system.cpu.icache.tags.avg_refs          38340.396641                       # Average number of references to valid blocks.
system.cpu.icache.tags.warmup_cycle             88000                       # Cycle when the warmup percentage was hit.
system.cpu.icache.tags.occ_blocks::.cpu.inst   251.843325                       # Average occupied blocks per requestor
system.cpu.icache.tags.occ_percent::.cpu.inst     0.983763                       # Average percentage of cache occupancy
system.cpu.icache.tags.occ_percent::total     0.983763                       # Average percentage of cache occupancy
system.cpu.icache.tags.occ_task_id_blocks::1024          253                       # Occupied blocks per task id
system.cpu.icache.tags.age_task_id_blocks_1024::0           57                       # Occupied blocks per task id
system.cpu.icache.tags.age_task_id_blocks_1024::1           88                       # Occupied blocks per task id
system.cpu.icache.tags.age_task_id_blocks_1024::4          108                       # Occupied blocks per task id
system.cpu.icache.tags.occ_task_id_percent::1024     0.988281                       # Percentage of cache occupancy per task id
system.cpu.icache.tags.tag_accesses          59351708                       # Number of tag accesses
system.cpu.icache.tags.data_accesses         59351708                       # Number of data accesses
system.cpu.icache.tags.power_state.pwrStateResidencyTicks::UNDEFINED  69960706000                       # Cumulative time (in ticks) in various power states
system.cpu.dtb.walker.power_state.pwrStateResidencyTicks::UNDEFINED  69960706000                       # Cumulative time (in ticks) in various power states
system.cpu.interrupts.clk_domain.clock          16000                       # Clock period in ticks
system.cpu.itb.walker.power_state.pwrStateResidencyTicks::UNDEFINED  69960706000                       # Cumulative time (in ticks) in various power states
system.cpu.dcache.demand_hits::.cpu.data      5216674                       # number of demand (read+write) hits
system.cpu.dcache.demand_hits::total          5216674                       # number of demand (read+write) hits
system.cpu.dcache.overall_hits::.cpu.data      5216969                       # number of overall hits
system.cpu.dcache.overall_hits::total         5216969                       # number of overall hits
system.cpu.dcache.demand_misses::.cpu.data         2480                       # number of demand (read+write) misses
system.cpu.dcache.demand_misses::total           2480                       # number of demand (read+write) misses
system.cpu.dcache.overall_misses::.cpu.data         2633                       # number of overall misses
system.cpu.dcache.overall_misses::total          2633                       # number of overall misses
system.cpu.dcache.demand_miss_latency::.cpu.data    113433000                       # number of demand (read+write) miss cycles
system.cpu.dcache.demand_miss_latency::total    113433000                       # number of demand (read+write) miss cycles
system.cpu.dcache.overall_miss_latency::.cpu.data    113433000                       # number of overall miss cycles
system.cpu.dcache.overall_miss_latency::total    113433000                       # number of overall miss cycles
system.cpu.dcache.demand_accesses::.cpu.data      5219154                       # number of demand (read+write) accesses
system.cpu.dcache.demand_accesses::total      5219154                       # number of demand (read+write) accesses
system.cpu.dcache.overall_accesses::.cpu.data      5219602                       # number of overall (read+write) accesses
system.cpu.dcache.overall_accesses::total      5219602                       # number of overall (read+write) accesses
system.cpu.dcache.demand_miss_rate::.cpu.data     0.000475                       # miss rate for demand accesses
system.cpu.dcache.demand_miss_rate::total     0.000475                       # miss rate for demand accesses
system.cpu.dcache.overall_miss_rate::.cpu.data     0.000504                       # miss rate for overall accesses
system.cpu.dcache.overall_miss_rate::total     0.000504                       # miss rate for overall accesses
system.cpu.dcache.demand_avg_miss_latency::.cpu.data 45739.112903                       # average overall miss latency
system.cpu.dcache.demand_avg_miss_latency::total 45739.112903                       # average overall miss latency
system.cpu.dcache.overall_avg_miss_latency::.cpu.data 43081.276111                       # average overall miss latency
system.cpu.dcache.overall_avg_miss_latency::total 43081.276111                       # average overall miss latency
system.cpu.dcache.blocked_cycles::no_mshrs            0                       # number of cycles access was blocked
system.cpu.dcache.blocked_cycles::no_targets            0                       # number of cycles access was blocked
system.cpu.dcache.blocked::no_mshrs                 0                       # number of cycles access was blocked
system.cpu.dcache.blocked::no_targets               0                       # number of cycles access was blocked
system.cpu.dcache.avg_blocked_cycles::no_mshrs          nan                       # average number of cycles each access was blocked
system.cpu.dcache.avg_blocked_cycles::no_targets          nan                       # average number of cycles each access was blocked
system.cpu.dcache.writebacks::.writebacks         1761                       # number of writebacks
system.cpu.dcache.writebacks::total              1761                       # number of writebacks
system.cpu.dcache.demand_mshr_misses::.cpu.data         2480                       # number of demand (read+write) MSHR misses
system.cpu.dcache.demand_mshr_misses::total         2480                       # number of demand (read+write) MSHR misses
system.cpu.dcache.overall_mshr_misses::.cpu.data         2633                       # number of overall MSHR misses
system.cpu.dcache.overall_mshr_misses::total         2633                       # number of overall MSHR misses
system.cpu.dcache.demand_mshr_miss_latency::.cpu.data    108473000                       # number of demand (read+write) MSHR miss cycles
system.cpu.dcache.demand_mshr_miss_latency::total    108473000                       # number of demand (read+write) MSHR miss cycles
system.cpu.dcache.overall_mshr_miss_latency::.cpu.data    118492000                       # number of overall MSHR miss cycles
system.cpu.dcache.overall_mshr_miss_latency::total    118492000                       # number of overall MSHR miss cycles
system.cpu.dcache.demand_mshr_miss_rate::.cpu.data     0.000475                       # mshr miss rate for demand accesses
system.cpu.dcache.demand_mshr_miss_rate::total     0.000475                       # mshr miss rate for demand accesses
system.cpu.dcache.overall_mshr_miss_rate::.cpu.data     0.000504                       # mshr miss rate for overall accesses
system.cpu.dcache.overall_mshr_miss_rate::total     0.000504                       # mshr miss rate for overall accesses
system.cpu.dcache.demand_avg_mshr_miss_latency::.cpu.data 43739.112903                       # average overall mshr miss latency
system.cpu.dcache.demand_avg_mshr_miss_latency::total 43739.112903                       # average overall mshr miss latency
system.cpu.dcache.overall_avg_mshr_miss_latency::.cpu.data 45002.658564                       # average overall mshr miss latency
system.cpu.dcache.overall_avg_mshr_miss_latency::total 45002.658564                       # average overall mshr miss latency
system.cpu.dcache.replacements                   2377                       # number of replacements
system.cpu.dcache.ReadReq_hits::.cpu.data      5151491                       # number of ReadReq hits
system.cpu.dcache.ReadReq_hits::total         5151491                       # number of ReadReq hits
system.cpu.dcache.ReadReq_misses::.cpu.data         1433                       # number of ReadReq misses
system.cpu.dcache.ReadReq_misses::total          1433                       # number of ReadReq misses
system.cpu.dcache.ReadReq_miss_latency::.cpu.data     58104000                       # number of ReadReq miss cycles
system.cpu.dcache.ReadReq_miss_latency::total     58104000                       # number of ReadReq miss cycles
system.cpu.dcache.ReadReq_accesses::.cpu.data      5152924                       # number of ReadReq accesses(hits+misses)
system.cpu.dcache.ReadReq_accesses::total      5152924                       # number of ReadReq accesses(hits+misses)
system.cpu.dcache.ReadReq_miss_rate::.cpu.data     0.000278                       # miss rate for ReadReq accesses
system.cpu.dcache.ReadReq_miss_rate::total     0.000278                       # miss rate for ReadReq accesses
system.cpu.dcache.ReadReq_avg_miss_latency::.cpu.data 40547.103978                       # average ReadReq miss latency
system.cpu.dcache.ReadReq_avg_miss_latency::total 40547.103978                       # average ReadReq miss latency
system.cpu.dcache.ReadReq_mshr_misses::.cpu.data         1433                       # number of ReadReq MSHR misses
system.cpu.dcache.ReadReq_mshr_misses::total         1433                       # number of ReadReq MSHR misses
system.cpu.dcache.ReadReq_mshr_miss_latency::.cpu.data     55238000                       # number of ReadReq MSHR miss cycles
system.cpu.dcache.ReadReq_mshr_miss_latency::total     55238000                       # number of ReadReq MSHR miss cycles
system.cpu.dcache.ReadReq_mshr_miss_rate::.cpu.data     0.000278                       # mshr miss rate for ReadReq accesses
system.cpu.dcache.ReadReq_mshr_miss_rate::total     0.000278                       # mshr miss rate for ReadReq accesses
system.cpu.dcache.ReadReq_avg_mshr_miss_latency::.cpu.data 38547.103978                       # average ReadReq mshr miss latency
system.cpu.dcache.ReadReq_avg_mshr_miss_latency::total 38547.103978                       # average ReadReq mshr miss latency
system.cpu.dcache.WriteReq_hits::.cpu.data        65183                       # number of WriteReq hits
system.cpu.dcache.WriteReq_hits::total          65183                       # number of WriteReq hits
system.cpu.dcache.WriteReq_misses::.cpu.data         1047                       # number of WriteReq misses
system.cpu.dcache.WriteReq_misses::total         1047                       # number of WriteReq misses
system.cpu.dcache.WriteReq_miss_latency::.cpu.data     55329000                       # number of WriteReq miss cycles
system.cpu.dcache.WriteReq_miss_latency::total     55329000                       # number of WriteReq miss cycles
system.cpu.dcache.WriteReq_accesses::.cpu.data        66230                       # number of WriteReq accesses(hits+misses)
system.cpu.dcache.WriteReq_accesses::total        66230                       # number of WriteReq accesses(hits+misses)
system.cpu.dcache.WriteReq_miss_rate::.cpu.data     0.015809                       # miss rate for WriteReq accesses
system.cpu.dcache.WriteReq_miss_rate::total     0.015809                       # miss rate for WriteReq accesses
system.cpu.dcache.WriteReq_avg_miss_latency::.cpu.data 52845.272206                       # average WriteReq miss latency
system.cpu.dcache.WriteReq_avg_miss_latency::total 52845.272206                       # average WriteReq miss latency
system.cpu.dcache.WriteReq_mshr_misses::.cpu.data         1047                       # number of WriteReq MSHR misses
system.cpu.dcache.WriteReq_mshr_misses::total         1047                       # number of WriteReq MSHR misses
system.cpu.dcache.WriteReq_mshr_miss_latency::.cpu.data     53235000                       # number of WriteReq MSHR miss cycles
system.cpu.dcache.WriteReq_mshr_miss_latency::total     53235000                       # number of WriteReq MSHR miss cycles
system.cpu.dcache.WriteReq_mshr_miss_rate::.cpu.data     0.015809                       # mshr miss rate for WriteReq accesses
system.cpu.dcache.WriteReq_mshr_miss_rate::total     0.015809                       # mshr miss rate for WriteReq accesses
system.cpu.dcache.WriteReq_avg_mshr_miss_latency::.cpu.data 50845.272206                       # average WriteReq mshr miss latency
system.cpu.dcache.WriteReq_avg_mshr_miss_latency::total 50845.272206                       # average WriteReq mshr miss latency
system.cpu.dcache.SoftPFReq_hits::.cpu.data          295                       # number of SoftPFReq hits
system.cpu.dcache.SoftPFReq_hits::total           295                       # number of SoftPFReq hits
system.cpu.dcache.SoftPFReq_misses::.cpu.data          153                       # number of SoftPFReq misses
system.cpu.dcache.SoftPFReq_misses::total          153                       # number of SoftPFReq misses
system.cpu.dcache.SoftPFReq_accesses::.cpu.data          448                       # number of SoftPFReq accesses(hits+misses)
system.cpu.dcache.SoftPFReq_accesses::total          448                       # number of SoftPFReq accesses(hits+misses)
system.cpu.dcache.SoftPFReq_miss_rate::.cpu.data     0.341518                       # miss rate for SoftPFReq accesses
system.cpu.dcache.SoftPFReq_miss_rate::total     0.341518                       # miss rate for SoftPFReq accesses
system.cpu.dcache.SoftPFReq_mshr_misses::.cpu.data          153                       # number of SoftPFReq MSHR misses
system.cpu.dcache.SoftPFReq_mshr_misses::total          153                       # number of SoftPFReq MSHR misses
system.cpu.dcache.SoftPFReq_mshr_miss_latency::.cpu.data     10019000                       # number of SoftPFReq MSHR miss cycles
system.cpu.dcache.SoftPFReq_mshr_miss_latency::total     10019000                       # number of SoftPFReq MSHR miss cycles
system.cpu.dcache.SoftPFReq_mshr_miss_rate::.cpu.data     0.341518                       # mshr miss rate for SoftPFReq accesses
system.cpu.dcache.SoftPFReq_mshr_miss_rate::total     0.341518                       # mshr miss rate for SoftPFReq accesses
system.cpu.dcache.SoftPFReq_avg_mshr_miss_latency::.cpu.data 65483.660131                       # average SoftPFReq mshr miss latency
system.cpu.dcache.SoftPFReq_avg_mshr_miss_latency::total 65483.660131                       # average SoftPFReq mshr miss latency
system.cpu.dcache.power_state.pwrStateResidencyTicks::UNDEFINED  69960706000                       # Cumulative time (in ticks) in various power states
system.cpu.dcache.tags.tagsinuse           255.836855                       # Cycle average of tags in use
system.cpu.dcache.tags.total_refs             5219602                       # Total number of references to valid blocks.
system.cpu.dcache.tags.sampled_refs              2633                       # Sample count of references to valid blocks.
system.cpu.dcache.tags.avg_refs           1982.378276                       # Average number of references to valid blocks.
system.cpu.dcache.tags.warmup_cycle            181000                       # Cycle when the warmup percentage was hit.
system.cpu.dcache.tags.occ_blocks::.cpu.data   255.836855                       # Average occupied blocks per requestor
system.cpu.dcache.tags.occ_percent::.cpu.data     0.999363                       # Average percentage of cache occupancy
system.cpu.dcache.tags.occ_percent::total     0.999363                       # Average percentage of cache occupancy
system.cpu.dcache.tags.occ_task_id_blocks::1024          256                       # Occupied blocks per task id
system.cpu.dcache.tags.age_task_id_blocks_1024::0           35                       # Occupied blocks per task id
system.cpu.dcache.tags.age_task_id_blocks_1024::1          159                       # Occupied blocks per task id
system.cpu.dcache.tags.age_task_id_blocks_1024::3            7                       # Occupied blocks per task id
system.cpu.dcache.tags.age_task_id_blocks_1024::4           55                       # Occupied blocks per task id
system.cpu.dcache.tags.occ_task_id_percent::1024            1                       # Percentage of cache occupancy per task id
system.cpu.dcache.tags.tag_accesses          10441837                       # Number of tag accesses
system.cpu.dcache.tags.data_accesses         10441837                       # Number of data accesses
system.cpu.dcache.tags.power_state.pwrStateResidencyTicks::UNDEFINED  69960706000                       # Cumulative time (in ticks) in various power states
system.cpu.power_state.numTransitions               1                       # Number of power state transitions
system.cpu.power_state.pwrStateResidencyTicks::ON  69960706000                       # Cumulative time (in ticks) in various power states
system.l2cache.demand_hits::.cpu.inst               3                       # number of demand (read+write) hits
system.l2cache.demand_hits::.cpu.data            1371                       # number of demand (read+write) hits
system.l2cache.demand_hits::total                1374                       # number of demand (read+write) hits
system.l2cache.overall_hits::.cpu.inst              3                       # number of overall hits
system.l2cache.overall_hits::.cpu.data           1371                       # number of overall hits
system.l2cache.overall_hits::total               1374                       # number of overall hits
system.l2cache.demand_misses::.cpu.inst           771                       # number of demand (read+write) misses
system.l2cache.demand_misses::.cpu.data          1262                       # number of demand (read+write) misses
system.l2cache.demand_misses::total              2033                       # number of demand (read+write) misses
system.l2cache.overall_misses::.cpu.inst          771                       # number of overall misses
system.l2cache.overall_misses::.cpu.data         1262                       # number of overall misses
system.l2cache.overall_misses::total             2033                       # number of overall misses
system.l2cache.demand_miss_latency::.cpu.inst     60452000                       # number of demand (read+write) miss cycles
system.l2cache.demand_miss_latency::.cpu.data     94790000                       # number of demand (read+write) miss cycles
system.l2cache.demand_miss_latency::total    155242000                       # number of demand (read+write) miss cycles
system.l2cache.overall_miss_latency::.cpu.inst     60452000                       # number of overall miss cycles
system.l2cache.overall_miss_latency::.cpu.data     94790000                       # number of overall miss cycles
system.l2cache.overall_miss_latency::total    155242000                       # number of overall miss cycles
system.l2cache.demand_accesses::.cpu.inst          774                       # number of demand (read+write) accesses
system.l2cache.demand_accesses::.cpu.data         2633                       # number of demand (read+write) accesses
system.l2cache.demand_accesses::total            3407                       # number of demand (read+write) accesses
system.l2cache.overall_accesses::.cpu.inst          774                       # number of overall (read+write) accesses
system.l2cache.overall_accesses::.cpu.data         2633                       # number of overall (read+write) accesses
system.l2cache.overall_accesses::total           3407                       # number of overall (read+write) accesses
system.l2cache.demand_miss_rate::.cpu.inst     0.996124                       # miss rate for demand accesses
system.l2cache.demand_miss_rate::.cpu.data     0.479301                       # miss rate for demand accesses
system.l2cache.demand_miss_rate::total       0.596713                       # miss rate for demand accesses
system.l2cache.overall_miss_rate::.cpu.inst     0.996124                       # miss rate for overall accesses
system.l2cache.overall_miss_rate::.cpu.data     0.479301                       # miss rate for overall accesses
system.l2cache.overall_miss_rate::total      0.596713                       # miss rate for overall accesses
system.l2cache.demand_avg_miss_latency::.cpu.inst 78407.263294                       # average overall miss latency
system.l2cache.demand_avg_miss_latency::.cpu.data 75110.935024                       # average overall miss latency
system.l2cache.demand_avg_miss_latency::total 76361.042794                       # average overall miss latency
system.l2cache.overall_avg_miss_latency::.cpu.inst 78407.263294                       # average overall miss latency
system.l2cache.overall_avg_miss_latency::.cpu.data 75110.935024                       # average overall miss latency
system.l2cache.overall_avg_miss_latency::total 76361.042794                       # average overall miss latency
system.l2cache.blocked_cycles::no_mshrs             0                       # number of cycles access was blocked
system.l2cache.blocked_cycles::no_targets            0                       # number of cycles access was blocked
system.l2cache.blocked::no_mshrs                    0                       # number of cycles access was blocked
system.l2cache.blocked::no_targets                  0                       # number of cycles access was blocked
system.l2cache.avg_blocked_cycles::no_mshrs          nan                       # average number of cycles each access was blocked
system.l2cache.avg_blocked_cycles::no_targets          nan                       # average number of cycles each access was blocked
system.l2cache.writebacks::.writebacks            354                       # number of writebacks
system.l2cache.writebacks::total                  354                       # number of writebacks
system.l2cache.demand_mshr_misses::.cpu.inst          771                       # number of demand (read+write) MSHR misses
system.l2cache.demand_mshr_misses::.cpu.data         1262                       # number of demand (read+write) MSHR misses
system.l2cache.demand_mshr_misses::total         2033                       # number of demand (read+write) MSHR misses
system.l2cache.overall_mshr_misses::.cpu.inst          771                       # number of overall MSHR misses
system.l2cache.overall_mshr_misses::.cpu.data         1262                       # number of overall MSHR misses
system.l2cache.overall_mshr_misses::total         2033                       # number of overall MSHR misses
system.l2cache.demand_mshr_miss_latency::.cpu.inst     52742000                       # number of demand (read+write) MSHR miss cycles
system.l2cache.demand_mshr_miss_latency::.cpu.data     82170000                       # number of demand (read+write) MSHR miss cycles
system.l2cache.demand_mshr_miss_latency::total    134912000                       # number of demand (read+write) MSHR miss cycles
system.l2cache.overall_mshr_miss_latency::.cpu.inst     52742000                       # number of overall MSHR miss cycles
system.l2cache.overall_mshr_miss_latency::.cpu.data     82170000                       # number of overall MSHR miss cycles
system.l2cache.overall_mshr_miss_latency::total    134912000                       # number of overall MSHR miss cycles
system.l2cache.demand_mshr_miss_rate::.cpu.inst     0.996124                       # mshr miss rate for demand accesses
system.l2cache.demand_mshr_miss_rate::.cpu.data     0.479301                       # mshr miss rate for demand accesses
system.l2cache.demand_mshr_miss_rate::total     0.596713                       # mshr miss rate for demand accesses
system.l2cache.overall_mshr_miss_rate::.cpu.inst     0.996124                       # mshr miss rate for overall accesses
system.l2cache.overall_mshr_miss_rate::.cpu.data     0.479301                       # mshr miss rate for overall accesses
system.l2cache.overall_mshr_miss_rate::total     0.596713                       # mshr miss rate for overall accesses
system.l2cache.demand_avg_mshr_miss_latency::.cpu.inst 68407.263294                       # average overall mshr miss latency
system.l2cache.demand_avg_mshr_miss_latency::.cpu.data 65110.935024                       # average overall mshr miss latency
system.l2cache.demand_avg_mshr_miss_latency::total 66361.042794                       # average overall mshr miss latency
system.l2cache.overall_avg_mshr_miss_latency::.cpu.inst 68407.263294                       # average overall mshr miss latency
system.l2cache.overall_avg_mshr_miss_latency::.cpu.data 65110.935024                       # average overall mshr miss latency
system.l2cache.overall_avg_mshr_miss_latency::total 66361.042794                       # average overall mshr miss latency
system.l2cache.replacements                      3221                       # number of replacements
system.l2cache.WritebackDirty_hits::.writebacks         1761                       # number of WritebackDirty hits
system.l2cache.WritebackDirty_hits::total         1761                       # number of WritebackDirty hits
system.l2cache.WritebackDirty_accesses::.writebacks         1761                       # number of WritebackDirty accesses(hits+misses)
system.l2cache.WritebackDirty_accesses::total         1761                       # number of WritebackDirty accesses(hits+misses)
system.l2cache.CleanEvict_mshr_misses::.writebacks          959                       # number of CleanEvict MSHR misses
system.l2cache.CleanEvict_mshr_misses::total          959                       # number of CleanEvict MSHR misses
system.l2cache.CleanEvict_mshr_miss_rate::.writebacks          inf                       # mshr miss rate for CleanEvict accesses
system.l2cache.CleanEvict_mshr_miss_rate::total          inf                       # mshr miss rate for CleanEvict accesses
system.l2cache.ReadExReq_hits::.cpu.data          477                       # number of ReadExReq hits
system.l2cache.ReadExReq_hits::total              477                       # number of ReadExReq hits
system.l2cache.ReadExReq_misses::.cpu.data          570                       # number of ReadExReq misses
system.l2cache.ReadExReq_misses::total            570                       # number of ReadExReq misses
system.l2cache.ReadExReq_miss_latency::.cpu.data     44846000                       # number of ReadExReq miss cycles
system.l2cache.ReadExReq_miss_latency::total     44846000                       # number of ReadExReq miss cycles
system.l2cache.ReadExReq_accesses::.cpu.data         1047                       # number of ReadExReq accesses(hits+misses)
system.l2cache.ReadExReq_accesses::total         1047                       # number of ReadExReq accesses(hits+misses)
system.l2cache.ReadExReq_miss_rate::.cpu.data     0.544413                       # miss rate for ReadExReq accesses
system.l2cache.ReadExReq_miss_rate::total     0.544413                       # miss rate for ReadExReq accesses
system.l2cache.ReadExReq_avg_miss_latency::.cpu.data 78677.192982                       # average ReadExReq miss latency
system.l2cache.ReadExReq_avg_miss_latency::total 78677.192982                       # average ReadExReq miss latency
system.l2cache.ReadExReq_mshr_misses::.cpu.data          570                       # number of ReadExReq MSHR misses
system.l2cache.ReadExReq_mshr_misses::total          570                       # number of ReadExReq MSHR misses
system.l2cache.ReadExReq_mshr_miss_latency::.cpu.data     39146000                       # number of ReadExReq MSHR miss cycles
system.l2cache.ReadExReq_mshr_miss_latency::total     39146000                       # number of ReadExReq MSHR miss cycles
system.l2cache.ReadExReq_mshr_miss_rate::.cpu.data     0.544413                       # mshr miss rate for ReadExReq accesses
system.l2cache.ReadExReq_mshr_miss_rate::total     0.544413                       # mshr miss rate for ReadExReq accesses
system.l2cache.ReadExReq_avg_mshr_miss_latency::.cpu.data 68677.192982                       # average ReadExReq mshr miss latency
system.l2cache.ReadExReq_avg_mshr_miss_latency::total 68677.192982                       # average ReadExReq mshr miss latency
system.l2cache.ReadSharedReq_hits::.cpu.inst            3                       # number of ReadSharedReq hits
system.l2cache.ReadSharedReq_hits::.cpu.data          894                       # number of ReadSharedReq hits
system.l2cache.ReadSharedReq_hits::total          897                       # number of ReadSharedReq hits
system.l2cache.ReadSharedReq_misses::.cpu.inst          771                       # number of ReadSharedReq misses
system.l2cache.ReadSharedReq_misses::.cpu.data          692                       # number of ReadSharedReq misses
system.l2cache.ReadSharedReq_misses::total         1463                       # number of ReadSharedReq misses
system.l2cache.ReadSharedReq_miss_latency::.cpu.inst     60452000                       # number of ReadSharedReq miss cycles
system.l2cache.ReadSharedReq_miss_latency::.cpu.data     49944000                       # number of ReadSharedReq miss cycles
system.l2cache.ReadSharedReq_miss_latency::total    110396000                       # number of ReadSharedReq miss cycles
system.l2cache.ReadSharedReq_accesses::.cpu.inst          774                       # number of ReadSharedReq accesses(hits+misses)
system.l2cache.ReadSharedReq_accesses::.cpu.data         1586                       # number of ReadSharedReq accesses(hits+misses)
system.l2cache.ReadSharedReq_accesses::total         2360                       # number of ReadSharedReq accesses(hits+misses)
system.l2cache.ReadSharedReq_miss_rate::.cpu.inst     0.996124                       # miss rate for ReadSharedReq accesses
system.l2cache.ReadSharedReq_miss_rate::.cpu.data     0.436318                       # miss rate for ReadSharedReq accesses
system.l2cache.ReadSharedReq_miss_rate::total     0.619915                       # miss rate for ReadSharedReq accesses
system.l2cache.ReadSharedReq_avg_miss_latency::.cpu.inst 78407.263294                       # average ReadSharedReq miss latency
system.l2cache.ReadSharedReq_avg_miss_latency::.cpu.data 72173.410405                       # average ReadSharedReq miss latency
system.l2cache.ReadSharedReq_avg_miss_latency::total 75458.646617                       # average ReadSharedReq miss latency
system.l2cache.ReadSharedReq_mshr_misses::.cpu.inst          771                       # number of ReadSharedReq MSHR misses
system.l2cache.ReadSharedReq_mshr_misses::.cpu.data          692                       # number of ReadSharedReq MSHR misses
system.l2cache.ReadSharedReq_mshr_misses::total         1463                       # number of ReadSharedReq MSHR misses
system.l2cache.ReadSharedReq_mshr_miss_latency::.cpu.inst     52742000                       # number of ReadSharedReq MSHR miss cycles
system.l2cache.ReadSharedReq_mshr_miss_latency::.cpu.data     43024000                       # number of ReadSharedReq MSHR miss cycles
system.l2cache.ReadSharedReq_mshr_miss_latency::total     95766000                       # number of ReadSharedReq MSHR miss cycles
system.l2cache.ReadSharedReq_mshr_miss_rate::.cpu.inst     0.996124                       # mshr miss rate for ReadSharedReq accesses
system.l2cache.ReadSharedReq_mshr_miss_rate::.cpu.data     0.436318                       # mshr miss rate for ReadSharedReq accesses
system.l2cache.ReadSharedReq_mshr_miss_rate::total     0.619915                       # mshr miss rate for ReadSharedReq accesses
system.l2cache.ReadSharedReq_avg_mshr_miss_latency::.cpu.inst 68407.263294                       # average ReadSharedReq mshr miss latency
system.l2cache.ReadSharedReq_avg_mshr_miss_latency::.cpu.data 62173.410405                       # average ReadSharedReq mshr miss latency
system.l2cache.ReadSharedReq_avg_mshr_miss_latency::total 65458.646617                       # average ReadSharedReq mshr miss latency
system.l2cache.power_state.pwrStateResidencyTicks::UNDEFINED  69960706000                       # Cumulative time (in ticks) in various power states
system.l2cache.tags.tagsinuse              255.924533                       # Cycle average of tags in use
system.l2cache.tags.total_refs                   5345                       # Total number of references to valid blocks.
system.l2cache.tags.sampled_refs                 3477                       # Sample count of references to valid blocks.
system.l2cache.tags.avg_refs                 1.537245                       # Average number of references to valid blocks.
system.l2cache.tags.warmup_cycle                77000                       # Cycle when the warmup percentage was hit.
system.l2cache.tags.occ_blocks::.writebacks    66.952133                       # Average occupied blocks per requestor
system.l2cache.tags.occ_blocks::.cpu.inst    20.403325                       # Average occupied blocks per requestor
system.l2cache.tags.occ_blocks::.cpu.data   168.569075                       # Average occupied blocks per requestor
system.l2cache.tags.occ_percent::.writebacks     0.261532                       # Average percentage of cache occupancy
system.l2cache.tags.occ_percent::.cpu.inst     0.079700                       # Average percentage of cache occupancy
system.l2cache.tags.occ_percent::.cpu.data     0.658473                       # Average percentage of cache occupancy
system.l2cache.tags.occ_percent::total       0.999705                       # Average percentage of cache occupancy
system.l2cache.tags.occ_task_id_blocks::1024          256                       # Occupied blocks per task id
system.l2cache.tags.age_task_id_blocks_1024::0          102                       # Occupied blocks per task id
system.l2cache.tags.age_task_id_blocks_1024::1          154                       # Occupied blocks per task id
system.l2cache.tags.occ_task_id_percent::1024            1                       # Percentage of cache occupancy per task id
system.l2cache.tags.tag_accesses                16085                       # Number of tag accesses
system.l2cache.tags.data_accesses               16085                       # Number of data accesses
system.l2cache.tags.power_state.pwrStateResidencyTicks::UNDEFINED  69960706000                       # Cumulative time (in ticks) in various power states
system.mem_ctrl.bytes_read::.cpu.inst           49344                       # Number of bytes read from this memory
system.mem_ctrl.bytes_read::.cpu.data           80768                       # Number of bytes read from this memory
system.mem_ctrl.bytes_read::total              130112                       # Number of bytes read from this memory
system.mem_ctrl.bytes_inst_read::.cpu.inst        49344                       # Number of instructions bytes read from this memory
system.mem_ctrl.bytes_inst_read::total          49344                       # Number of instructions bytes read from this memory
system.mem_ctrl.bytes_written::.writebacks        22656                       # Number of bytes written to this memory
system.mem_ctrl.bytes_written::total            22656                       # Number of bytes written to this memory
system.mem_ctrl.num_reads::.cpu.inst              771                       # Number of read requests responded to by this memory
system.mem_ctrl.num_reads::.cpu.data             1262                       # Number of read requests responded to by this memory
system.mem_ctrl.num_reads::total                 2033                       # Number of read requests responded to by this memory
system.mem_ctrl.num_writes::.writebacks           354                       # Number of write requests responded to by this memory
system.mem_ctrl.num_writes::total                 354                       # Number of write requests responded to by this memory
system.mem_ctrl.bw_read::.cpu.inst             705310                       # Total read bandwidth from this memory (bytes/s)
system.mem_ctrl.bw_read::.cpu.data            1154477                       # Total read bandwidth from this memory (bytes/s)
system.mem_ctrl.bw_read::total                1859787                       # Total read bandwidth from this memory (bytes/s)
system.mem_ctrl.bw_inst_read::.cpu.inst        705310                       # Instruction read bandwidth from this memory (bytes/s)
system.mem_ctrl.bw_inst_read::total            705310                       # Instruction read bandwidth from this memory (bytes/s)
system.mem_ctrl.bw_write::.writebacks          323839                       # Write bandwidth from this memory (bytes/s)
system.mem_ctrl.bw_write::total                323839                       # Write bandwidth from this memory (bytes/s)
system.mem_ctrl.bw_total::.writebacks          323839                       # Total bandwidth to/from this memory (bytes/s)
system.mem_ctrl.bw_total::.cpu.inst            705310                       # Total bandwidth to/from this memory (bytes/s)
system.mem_ctrl.bw_total::.cpu.data           1154477                       # Total bandwidth to/from this memory (bytes/s)
system.mem_ctrl.bw_total::total               2183626                       # Total bandwidth to/from this memory (bytes/s)
system.mem_ctrl.avgPriority_.writebacks::samples       352.00                       # Average QoS priority value for accepted requests
system.mem_ctrl.avgPriority_.cpu.inst::samples       771.00                       # Average QoS priority value for accepted requests
system.mem_ctrl.avgPriority_.cpu.data::samples      1145.00                       # Average QoS priority value for accepted requests
system.mem_ctrl.priorityMinLatency       0.000000018750                       # per QoS priority minimum request to response latency (s)
system.mem_ctrl.priorityMaxLatency       0.139022994750                       # per QoS priority maximum request to response latency (s)
system.mem_ctrl.numReadWriteTurnArounds            19                       # Number of turnarounds from READ to WRITE
system.mem_ctrl.numWriteReadTurnArounds            19                       # Number of turnarounds from WRITE to READ
system.mem_ctrl.numStayReadState                22149                       # Number of times bus staying in READ state
system.mem_ctrl.numStayWriteState                 311                       # Number of times bus staying in WRITE state
system.mem_ctrl.readReqs                         2033                       # Number of read requests accepted
system.mem_ctrl.writeReqs                         354                       # Number of write requests accepted
system.mem_ctrl.readBursts                       2033                       # Number of DRAM read bursts, including those serviced by the write queue
system.mem_ctrl.writeBursts                       354                       # Number of DRAM write bursts, including those merged in the write queue
system.mem_ctrl.servicedByWrQ                     117                       # Number of DRAM read bursts serviced by the write queue
system.mem_ctrl.mergedWrBursts                      2                       # Number of DRAM write bursts merged with an existing one
system.mem_ctrl.neitherReadNorWriteReqs             0                       # Number of requests that are neither read nor write
system.mem_ctrl.perBankRdBursts::0                110                       # Per bank write bursts
system.mem_ctrl.perBankRdBursts::1                 27                       # Per bank write bursts
system.mem_ctrl.perBankRdBursts::2                  7                       # Per bank write bursts
system.mem_ctrl.perBankRdBursts::3                140                       # Per bank write bursts
system.mem_ctrl.perBankRdBursts::4                264                       # Per bank write bursts
system.mem_ctrl.perBankRdBursts::5                101                       # Per bank write bursts
system.mem_ctrl.perBankRdBursts::6                337                       # Per bank write bursts
system.mem_ctrl.perBankRdBursts::7                175                       # Per bank write bursts
system.mem_ctrl.perBankRdBursts::8                331                       # Per bank write bursts
system.mem_ctrl.perBankRdBursts::9                201                       # Per bank write bursts
system.mem_ctrl.perBankRdBursts::10                64                       # Per bank write bursts
system.mem_ctrl.perBankRdBursts::11                54                       # Per bank write bursts
system.mem_ctrl.perBankRdBursts::12                10                       # Per bank write bursts
system.mem_ctrl.perBankRdBursts::13                53                       # Per bank write bursts
system.mem_ctrl.perBankRdBursts::14                 7                       # Per bank write bursts
system.mem_ctrl.perBankRdBursts::15                35                       # Per bank write bursts
system.mem_ctrl.perBankWrBursts::0                  0                       # Per bank write bursts
system.mem_ctrl.perBankWrBursts::1                  0                       # Per bank write bursts
system.mem_ctrl.perBankWrBursts::2                  0                       # Per bank write bursts
system.mem_ctrl.perBankWrBursts::3                 12                       # Per bank write bursts
system.mem_ctrl.perBankWrBursts::4                 74                       # Per bank write bursts
system.mem_ctrl.perBankWrBursts::5                 21                       # Per bank write bursts
system.mem_ctrl.perBankWrBursts::6                110                       # Per bank write bursts
system.mem_ctrl.perBankWrBursts::7                 60                       # Per bank write bursts
system.mem_ctrl.perBankWrBursts::8                 53                       # Per bank write bursts
system.mem_ctrl.perBankWrBursts::9                  0                       # Per bank write bursts
system.mem_ctrl.perBankWrBursts::10                 0                       # Per bank write bursts
system.mem_ctrl.perBankWrBursts::11                 0                       # Per bank write bursts
system.mem_ctrl.perBankWrBursts::12                 0                       # Per bank write bursts
system.mem_ctrl.perBankWrBursts::13                 0                       # Per bank write bursts
system.mem_ctrl.perBankWrBursts::14                 0                       # Per bank write bursts
system.mem_ctrl.perBankWrBursts::15                 0                       # Per bank write bursts
system.mem_ctrl.avgRdQLen                        1.00                       # Average read queue length when enqueuing
system.mem_ctrl.avgWrQLen                       24.59                       # Average write queue length when enqueuing
system.mem_ctrl.totQLat                      16164500                       # Total ticks spent queuing
system.mem_ctrl.totBusLat                     9580000                       # Total ticks spent in databus transfers
system.mem_ctrl.totMemAccLat                 52089500                       # Total ticks spent from burst creation until serviced by the DRAM
system.mem_ctrl.avgQLat                       8436.59                       # Average queueing delay per DRAM burst
system.mem_ctrl.avgBusLat                     5000.00                       # Average bus latency per DRAM burst
system.mem_ctrl.avgMemAccLat                 27186.59                       # Average memory access latency per DRAM burst
system.mem_ctrl.numRdRetry                          0                       # Number of times read queue was full causing retry
system.mem_ctrl.numWrRetry                          0                       # Number of times write queue was full causing retry
system.mem_ctrl.readRowHits                      1455                       # Number of row buffer hits during reads
system.mem_ctrl.writeRowHits                      277                       # Number of row buffer hits during writes
system.mem_ctrl.readRowHitRate                  75.94                       # Row buffer hit rate for reads
system.mem_ctrl.writeRowHitRate                 78.69                       # Row buffer hit rate for writes
system.mem_ctrl.readPktSize::0                      0                       # Read request sizes (log2)
system.mem_ctrl.readPktSize::1                      0                       # Read request sizes (log2)
system.mem_ctrl.readPktSize::2                      0                       # Read request sizes (log2)
system.mem_ctrl.readPktSize::3                      0                       # Read request sizes (log2)
system.mem_ctrl.readPktSize::4                      0                       # Read request sizes (log2)
system.mem_ctrl.readPktSize::5                      0                       # Read request sizes (log2)
system.mem_ctrl.readPktSize::6                   2033                       # Read request sizes (log2)
system.mem_ctrl.writePktSize::0                     0                       # Write request sizes (log2)
system.mem_ctrl.writePktSize::1                     0                       # Write request sizes (log2)
system.mem_ctrl.writePktSize::2                     0                       # Write request sizes (log2)
system.mem_ctrl.writePktSize::3                     0                       # Write request sizes (log2)
system.mem_ctrl.writePktSize::4                     0                       # Write request sizes (log2)
system.mem_ctrl.writePktSize::5                     0                       # Write request sizes (log2)
system.mem_ctrl.writePktSize::6                   354                       # Write request sizes (log2)
system.mem_ctrl.rdQLenPdf::0                     1912                       # What read queue length does an incoming req see
system.mem_ctrl.rdQLenPdf::1                        3                       # What read queue length does an incoming req see
system.mem_ctrl.rdQLenPdf::2                        1                       # What read queue length does an incoming req see
system.mem_ctrl.rdQLenPdf::3                        0                       # What read queue length does an incoming req see
system.mem_ctrl.rdQLenPdf::4                        0                       # What read queue length does an incoming req see
system.mem_ctrl.rdQLenPdf::5                        0                       # What read queue length does an incoming req see
system.mem_ctrl.rdQLenPdf::6                        0                       # What read queue length does an incoming req see
system.mem_ctrl.rdQLenPdf::7                        0                       # What read queue length does an incoming req see
system.mem_ctrl.rdQLenPdf::8                        0                       # What read queue length does an incoming req see
system.mem_ctrl.rdQLenPdf::9                        0                       # What read queue length does an incoming req see
system.mem_ctrl.rdQLenPdf::10                       0                       # What read queue length does an incoming req see
system.mem_ctrl.rdQLenPdf::11                       0                       # What read queue length does an incoming req see
system.mem_ctrl.rdQLenPdf::12                       0                       # What read queue length does an incoming req see
system.mem_ctrl.rdQLenPdf::13                       0                       # What read queue length does an incoming req see
system.mem_ctrl.rdQLenPdf::14                       0                       # What read queue length does an incoming req see
system.mem_ctrl.rdQLenPdf::15                       0                       # What read queue length does an incoming req see
system.mem_ctrl.rdQLenPdf::16                       0                       # What read queue length does an incoming req see
system.mem_ctrl.rdQLenPdf::17                       0                       # What read queue length does an incoming req see
system.mem_ctrl.rdQLenPdf::18                       0                       # What read queue length does an incoming req see
system.mem_ctrl.rdQLenPdf::19                       0                       # What read queue length does an incoming req see
system.mem_ctrl.rdQLenPdf::20                       0                       # What read queue length does an incoming req see
system.mem_ctrl.rdQLenPdf::21                       0                       # What read queue length does an incoming req see
system.mem_ctrl.rdQLenPdf::22                       0                       # What read queue length does an incoming req see
system.mem_ctrl.rdQLenPdf::23                       0                       # What read queue length does an incoming req see
system.mem_ctrl.rdQLenPdf::24                       0                       # What read queue length does an incoming req see
system.mem_ctrl.rdQLenPdf::25                       0                       # What read queue length does an incoming req see
system.mem_ctrl.rdQLenPdf::26                       0                       # What read queue length does an incoming req see
system.mem_ctrl.rdQLenPdf::27                       0                       # What read queue length does an incoming req see
system.mem_ctrl.rdQLenPdf::28                       0                       # What read queue length does an incoming req see
system.mem_ctrl.rdQLenPdf::29                       0                       # What read queue length does an incoming req see
system.mem_ctrl.rdQLenPdf::30                       0                       # What read queue length does an incoming req see
system.mem_ctrl.rdQLenPdf::31                       0                       # What read queue length does an incoming req see
system.mem_ctrl.wrQLenPdf::0                        1                       # What write queue length does an incoming req see
system.mem_ctrl.wrQLenPdf::1                        1                       # What write queue length does an incoming req see
system.mem_ctrl.wrQLenPdf::2                        1                       # What write queue length does an incoming req see
system.mem_ctrl.wrQLenPdf::3                        1                       # What write queue length does an incoming req see
system.mem_ctrl.wrQLenPdf::4                        1                       # What write queue length does an incoming req see
system.mem_ctrl.wrQLenPdf::5                        1                       # What write queue length does an incoming req see
system.mem_ctrl.wrQLenPdf::6                        1                       # What write queue length does an incoming req see
system.mem_ctrl.wrQLenPdf::7                        1                       # What write queue length does an incoming req see
system.mem_ctrl.wrQLenPdf::8                        1                       # What write queue length does an incoming req see
system.mem_ctrl.wrQLenPdf::9                        1                       # What write queue length does an incoming req see
system.mem_ctrl.wrQLenPdf::10                       1                       # What write queue length does an incoming req see
system.mem_ctrl.wrQLenPdf::11                       1                       # What write queue length does an incoming req see
system.mem_ctrl.wrQLenPdf::12                       1                       # What write queue length does an incoming req see
system.mem_ctrl.wrQLenPdf::13                       1                       # What write queue length does an incoming req see
system.mem_ctrl.wrQLenPdf::14                       1                       # What write queue length does an incoming req see
system.mem_ctrl.wrQLenPdf::15                      14                       # What write queue length does an incoming req see
system.mem_ctrl.wrQLenPdf::16                      14                       # What write queue length does an incoming req see
system.mem_ctrl.wrQLenPdf::17                      20                       # What write queue length does an incoming req see
system.mem_ctrl.wrQLenPdf::18                      20                       # What write queue length does an incoming req see
system.mem_ctrl.wrQLenPdf::19                      20                       # What write queue length does an incoming req see
system.mem_ctrl.wrQLenPdf::20                      20                       # What write queue length does an incoming req see
system.mem_ctrl.wrQLenPdf::21                      20                       # What write queue length does an incoming req see
system.mem_ctrl.wrQLenPdf::22                      19                       # What write queue length does an incoming req see
system.mem_ctrl.wrQLenPdf::23                      19                       # What write queue length does an incoming req see
system.mem_ctrl.wrQLenPdf::24                      19                       # What write queue length does an incoming req see
system.mem_ctrl.wrQLenPdf::25                      19                       # What write queue length does an incoming req see
system.mem_ctrl.wrQLenPdf::26                      19                       # What write queue length does an incoming req see
system.mem_ctrl.wrQLenPdf::27                      19                       # What write queue length does an incoming req see
system.mem_ctrl.wrQLenPdf::28                      19                       # What write queue length does an incoming req see
system.mem_ctrl.wrQLenPdf::29                      19                       # What write queue length does an incoming req see
system.mem_ctrl.wrQLenPdf::30                      19                       # What write queue length does an incoming req see
system.mem_ctrl.wrQLenPdf::31                      19                       # What write queue length does an incoming req see
system.mem_ctrl.wrQLenPdf::32                      19                       # What write queue length does an incoming req see
system.mem_ctrl.wrQLenPdf::33                       0                       # What write queue length does an incoming req see
system.mem_ctrl.wrQLenPdf::34                       0                       # What write queue length does an incoming req see
system.mem_ctrl.wrQLenPdf::35                       0                       # What write queue length does an incoming req see
system.mem_ctrl.wrQLenPdf::36                       0                       # What write queue length does an incoming req see
system.mem_ctrl.wrQLenPdf::37                       0                       # What write queue length does an incoming req see
system.mem_ctrl.wrQLenPdf::38                       0                       # What write queue length does an incoming req see
system.mem_ctrl.wrQLenPdf::39                       0                       # What write queue length does an incoming req see
system.mem_ctrl.wrQLenPdf::40                       0                       # What write queue length does an incoming req see
system.mem_ctrl.wrQLenPdf::41                       0                       # What write queue length does an incoming req see
system.mem_ctrl.wrQLenPdf::42                       0                       # What write queue length does an incoming req see
system.mem_ctrl.wrQLenPdf::43                       0                       # What write queue length does an incoming req see
system.mem_ctrl.wrQLenPdf::44                       0                       # What write queue length does an incoming req see
system.mem_ctrl.wrQLenPdf::45                       0                       # What write queue length does an incoming req see
system.mem_ctrl.wrQLenPdf::46                       0                       # What write queue length does an incoming req see
system.mem_ctrl.wrQLenPdf::47                       0                       # What write queue length does an incoming req see
system.mem_ctrl.wrQLenPdf::48                       0                       # What write queue length does an incoming req see
system.mem_ctrl.wrQLenPdf::49                       0                       # What write queue length does an incoming req see
system.mem_ctrl.wrQLenPdf::50                       0                       # What write queue length does an incoming req see
system.mem_ctrl.wrQLenPdf::51                       0                       # What write queue length does an incoming req see
system.mem_ctrl.wrQLenPdf::52                       0                       # What write queue length does an incoming req see
system.mem_ctrl.wrQLenPdf::53                       0                       # What write queue length does an incoming req see
system.mem_ctrl.wrQLenPdf::54                       0                       # What write queue length does an incoming req see
system.mem_ctrl.wrQLenPdf::55                       0                       # What write queue length does an incoming req see
system.mem_ctrl.wrQLenPdf::56                       0                       # What write queue length does an incoming req see
system.mem_ctrl.wrQLenPdf::57                       0                       # What write queue length does an incoming req see
system.mem_ctrl.wrQLenPdf::58                       0                       # What write queue length does an incoming req see
system.mem_ctrl.wrQLenPdf::59                       0                       # What write queue length does an incoming req see
system.mem_ctrl.wrQLenPdf::60                       0                       # What write queue length does an incoming req see
system.mem_ctrl.wrQLenPdf::61                       0                       # What write queue length does an incoming req see
system.mem_ctrl.wrQLenPdf::62                       0                       # What write queue length does an incoming req see
system.mem_ctrl.wrQLenPdf::63                       0                       # What write queue length does an incoming req see
system.mem_ctrl.bytesPerActivate::samples          512                       # Bytes accessed per row activation
system.mem_ctrl.bytesPerActivate::mean     279.875000                       # Bytes accessed per row activation
system.mem_ctrl.bytesPerActivate::gmean    179.879754                       # Bytes accessed per row activation
system.mem_ctrl.bytesPerActivate::stdev    280.584657                       # Bytes accessed per row activation
system.mem_ctrl.bytesPerActivate::0-127           170     33.20%     33.20% # Bytes accessed per row activation
system.mem_ctrl.bytesPerActivate::128-255          136     26.56%     59.77% # Bytes accessed per row activation
system.mem_ctrl.bytesPerActivate::256-383           76     14.84%     74.61% # Bytes accessed per row activation
system.mem_ctrl.bytesPerActivate::384-511           40      7.81%     82.42% # Bytes accessed per row activation
system.mem_ctrl.bytesPerActivate::512-639           19      3.71%     86.13% # Bytes accessed per row activation
system.mem_ctrl.bytesPerActivate::640-767           14      2.73%     88.87% # Bytes accessed per row activation
system.mem_ctrl.bytesPerActivate::768-895           17      3.32%     92.19% # Bytes accessed per row activation
system.mem_ctrl.bytesPerActivate::896-1023           11      2.15%     94.34% # Bytes accessed per row activation
system.mem_ctrl.bytesPerActivate::1024-1151           29      5.66%    100.00% # Bytes accessed per row activation
system.mem_ctrl.bytesPerActivate::total           512                       # Bytes accessed per row activation
system.mem_ctrl.rdPerTurnAround::samples           19                       # Reads before turning the bus around for writes
system.mem_ctrl.rdPerTurnAround::mean      100.368421                       # Reads before turning the bus around for writes
system.mem_ctrl.rdPerTurnAround::gmean      60.291998                       # Reads before turning the bus around for writes
system.mem_ctrl.rdPerTurnAround::stdev     193.961683                       # Reads before turning the bus around for writes
system.mem_ctrl.rdPerTurnAround::0-31               1      5.26%      5.26% # Reads before turning the bus around for writes
system.mem_ctrl.rdPerTurnAround::32-63             13     68.42%     73.68% # Reads before turning the bus around for writes
system.mem_ctrl.rdPerTurnAround::64-95              2     10.53%     84.21% # Reads before turning the bus around for writes
system.mem_ctrl.rdPerTurnAround::96-127             2     10.53%     94.74% # Reads before turning the bus around for writes
system.mem_ctrl.rdPerTurnAround::864-895            1      5.26%    100.00% # Reads before turning the bus around for writes
system.mem_ctrl.rdPerTurnAround::total             19                       # Reads before turning the bus around for writes
system.mem_ctrl.wrPerTurnAround::samples           19                       # Writes before turning the bus around for reads
system.mem_ctrl.wrPerTurnAround::mean       17.368421                       # Writes before turning the bus around for reads
system.mem_ctrl.wrPerTurnAround::gmean      17.342794                       # Writes before turning the bus around for reads
system.mem_ctrl.wrPerTurnAround::stdev       0.955134                       # Writes before turning the bus around for reads
system.mem_ctrl.wrPerTurnAround::16                 6     31.58%     31.58% # Writes before turning the bus around for reads
system.mem_ctrl.wrPerTurnAround::18                13     68.42%    100.00% # Writes before turning the bus around for reads
system.mem_ctrl.wrPerTurnAround::total             19                       # Writes before turning the bus around for reads
system.mem_ctrl.bytesReadDRAM                  122624                       # Total number of bytes read from DRAM
system.mem_ctrl.bytesReadWrQ                     7488                       # Total number of bytes read from write queue
system.mem_ctrl.bytesWritten                    21120                       # Total number of bytes written to DRAM
system.mem_ctrl.bytesReadSys                   130112                       # Total read bytes from the system interface side
system.mem_ctrl.bytesWrittenSys                 22656                       # Total written bytes from the system interface side
system.mem_ctrl.avgRdBW                          1.75                       # Average DRAM read bandwidth in MiByte/s
system.mem_ctrl.avgWrBW                          0.30                       # Average achieved write bandwidth in MiByte/s
system.mem_ctrl.avgRdBWSys                       1.86                       # Average system read bandwidth in MiByte/s
system.mem_ctrl.avgWrBWSys                       0.32                       # Average system write bandwidth in MiByte/s
system.mem_ctrl.peakBW                       12800.00                       # Theoretical peak bandwidth in MiByte/s
system.mem_ctrl.busUtil                          0.02                       # Data bus utilization in percentage
system.mem_ctrl.busUtilRead                      0.01                       # Data bus utilization in percentage for reads
system.mem_ctrl.busUtilWrite                     0.00                       # Data bus utilization in percentage for writes
system.mem_ctrl.totGap                    69960583000                       # Total gap between requests
system.mem_ctrl.avgGap                    29309000.00                       # Average gap between requests
system.mem_ctrl.masterReadBytes::.cpu.inst        49344                       # Per-master bytes read from memory
system.mem_ctrl.masterReadBytes::.cpu.data        73280                       # Per-master bytes read from memory
system.mem_ctrl.masterWriteBytes::.writebacks        21120                       # Per-master bytes write to memory
system.mem_ctrl.masterReadRate::.cpu.inst 705310.206560808583                       # Per-master bytes read from memory rate (Bytes/sec)
system.mem_ctrl.masterReadRate::.cpu.data 1047445.118692770251                       # Per-master bytes read from memory rate (Bytes/sec)
system.mem_ctrl.masterWriteRate::.writebacks 301883.745998789673                       # Per-master bytes write to memory rate (Bytes/sec)
system.mem_ctrl.masterReadAccesses::.cpu.inst          771                       # Per-master read serviced memory accesses
system.mem_ctrl.masterReadAccesses::.cpu.data         1262                       # Per-master read serviced memory accesses
system.mem_ctrl.masterWriteAccesses::.writebacks          354                       # Per-master write serviced memory accesses
system.mem_ctrl.masterReadTotalLat::.cpu.inst     20864250                       # Per-master read total memory access latency
system.mem_ctrl.masterReadTotalLat::.cpu.data     31225250                       # Per-master read total memory access latency
system.mem_ctrl.masterWriteTotalLat::.writebacks 1682967539250                       # Per-master write total memory access latency
system.mem_ctrl.masterReadAvgLat::.cpu.inst     27061.28                       # Per-master read average memory access latency
system.mem_ctrl.masterReadAvgLat::.cpu.data     24742.67                       # Per-master read average memory access latency
system.mem_ctrl.masterWriteAvgLat::.writebacks 4754145591.10                       # Per-master write average memory access latency
system.mem_ctrl.pageHitRate                     76.37                       # Row buffer hit rate, read and write combined
system.mem_ctrl.rank1.actEnergy               1199520                       # Energy for activate commands per rank (pJ)
system.mem_ctrl.rank1.preEnergy                637560                       # Energy for precharge commands per rank (pJ)
system.mem_ctrl.rank1.readEnergy              5390700                       # Energy for read commands per rank (pJ)
system.mem_ctrl.rank1.writeEnergy              276660                       # Energy for write commands per rank (pJ)
system.mem_ctrl.rank1.refreshEnergy      5522540400.000001                       # Energy for refresh commands per rank (pJ)
system.mem_ctrl.rank1.actBackEnergy        1177125810                       # Energy for active background per rank (pJ)
system.mem_ctrl.rank1.preBackEnergy       25873647360                       # Energy for precharge background per rank (pJ)
system.mem_ctrl.rank1.actPowerDownEnergy            0                       # Energy for active power-down per rank (pJ)
system.mem_ctrl.rank1.prePowerDownEnergy            0                       # Energy for precharge power-down per rank (pJ)
system.mem_ctrl.rank1.selfRefreshEnergy             0                       # Energy for self refresh per rank (pJ)
system.mem_ctrl.rank1.totalEnergy         32580818010                       # Total energy per rank (pJ)
system.mem_ctrl.rank1.averagePower         465.701676                       # Core power per rank (mW)
system.mem_ctrl.rank1.totalIdleTime                 0                       # Total Idle time Per DRAM Rank
system.mem_ctrl.rank1.memoryStateTime::IDLE  67254789750                       # Time in different power states
system.mem_ctrl.rank1.memoryStateTime::REF   2336100000                       # Time in different power states
system.mem_ctrl.rank1.memoryStateTime::SREF            0                       # Time in different power states
system.mem_ctrl.rank1.memoryStateTime::PRE_PDN            0                       # Time in different power states
system.mem_ctrl.rank1.memoryStateTime::ACT    369816250                       # Time in different power states
system.mem_ctrl.rank1.memoryStateTime::ACT_PDN            0                       # Time in different power states
system.mem_ctrl.rank0.actEnergy               2470440                       # Energy for activate commands per rank (pJ)
system.mem_ctrl.rank0.preEnergy               1305480                       # Energy for precharge commands per rank (pJ)
system.mem_ctrl.rank0.readEnergy              8289540                       # Energy for read commands per rank (pJ)
system.mem_ctrl.rank0.writeEnergy             1445940                       # Energy for write commands per rank (pJ)
system.mem_ctrl.rank0.refreshEnergy      5522540400.000001                       # Energy for refresh commands per rank (pJ)
system.mem_ctrl.rank0.actBackEnergy        1148197170                       # Energy for active background per rank (pJ)
system.mem_ctrl.rank0.preBackEnergy       25898008320                       # Energy for precharge background per rank (pJ)
system.mem_ctrl.rank0.actPowerDownEnergy            0                       # Energy for active power-down per rank (pJ)
system.mem_ctrl.rank0.prePowerDownEnergy            0                       # Energy for precharge power-down per rank (pJ)
system.mem_ctrl.rank0.selfRefreshEnergy             0                       # Energy for self refresh per rank (pJ)
system.mem_ctrl.rank0.totalEnergy         32582257290                       # Total energy per rank (pJ)
system.mem_ctrl.rank0.averagePower         465.722248                       # Core power per rank (mW)
system.mem_ctrl.rank0.totalIdleTime                 0                       # Total Idle time Per DRAM Rank
system.mem_ctrl.rank0.memoryStateTime::IDLE  67318344000                       # Time in different power states
system.mem_ctrl.rank0.memoryStateTime::REF   2336100000                       # Time in different power states
system.mem_ctrl.rank0.memoryStateTime::SREF            0                       # Time in different power states
system.mem_ctrl.rank0.memoryStateTime::PRE_PDN            0                       # Time in different power states
system.mem_ctrl.rank0.memoryStateTime::ACT    306262000                       # Time in different power states
system.mem_ctrl.rank0.memoryStateTime::ACT_PDN            0                       # Time in different power states
system.mem_ctrl.power_state.pwrStateResidencyTicks::UNDEFINED  69960706000                       # Cumulative time (in ticks) in various power states

---------- End Simulation Statistics   ----------
