gem5 Simulator System.  http://gem5.org
gem5 is copyrighted software; use the --copyright option for details.

gem5 version 20.0.0.3
gem5 compiled Sep 10 2020 16:18:54
gem5 started Sep 27 2020 00:37:58
gem5 executing on troy, pid 36064
command line: build/X86/gem5.opt -d /home/setu18190/gem5/CA_projects/Assignment-1/run_dir/stats/64kB_2 CA_projects/Assignment-1/configs/two_level.py --cmd=CA_projects/Assignment-1/automotive/susan/susan '--args=CA_projects/Assignment-1/automotive/susan/input_small.pgm CA_projects/Assignment-1/automotive/susan/output_small_t.smoothing.pgm -s' --l2_size=64kB --l2_assoc=2

Got the following arguments
Command: CA_projects/Assignment-1/automotive/susan/susan
Arguments: CA_projects/Assignment-1/automotive/susan/input_small.pgm CA_projects/Assignment-1/automotive/susan/output_small_t.smoothing.pgm -s
L2 size: 64kB
L2 Associativity: 2
Global frequency set at 1000000000000 ticks per second
Beginning simulation!
Exiting @ tick 69941883000 because exiting with last active thread context
