
---------- Begin Simulation Statistics ----------
final_tick                                69937771000                       # Number of ticks from beginning of simulation (restored from checkpoints and never reset)
host_inst_rate                                 518498                       # Simulator instruction rate (inst/s)
host_mem_usage                                 681148                       # Number of bytes of host memory used
host_op_rate                                   917510                       # Simulator op (including micro ops) rate (op/s)
host_seconds                                    46.88                       # Real time elapsed on the host
host_tick_rate                             1491770561                       # Simulator tick rate (ticks/s)
sim_freq                                 1000000000000                       # Frequency of simulated ticks
sim_insts                                    24308337                       # Number of instructions simulated
sim_ops                                      43015049                       # Number of ops (including micro ops) simulated
sim_seconds                                  0.069938                       # Number of seconds simulated
sim_ticks                                 69937771000                       # Number of ticks simulated
system.cpu.Branches                           1784668                       # Number of branches fetched
system.cpu.committedInsts                    24308337                       # Number of instructions committed
system.cpu.committedOps                      43015049                       # Number of ops (including micro ops) committed
system.cpu.dtb.rdAccesses                     5153372                       # TLB accesses on read requests
system.cpu.dtb.rdMisses                            17                       # TLB misses on read requests
system.cpu.dtb.wrAccesses                       67138                       # TLB accesses on write requests
system.cpu.dtb.wrMisses                            27                       # TLB misses on write requests
system.cpu.idle_fraction                     0.000000                       # Percentage of idle cycles
system.cpu.itb.rdAccesses                           0                       # TLB accesses on read requests
system.cpu.itb.rdMisses                             0                       # TLB misses on read requests
system.cpu.itb.wrAccesses                    29675467                       # TLB accesses on write requests
system.cpu.itb.wrMisses                            55                       # TLB misses on write requests
system.cpu.not_idle_fraction                 1.000000                       # Percentage of non-idle cycles
system.cpu.numCycles                         69937771                       # number of cpu cycles simulated
system.cpu.numWorkItemsCompleted                    0                       # number of work items this cpu completed
system.cpu.numWorkItemsStarted                      0                       # number of work items this cpu started
system.cpu.num_busy_cycles               69937770.999000                       # Number of busy cycles
system.cpu.num_cc_register_reads              9220062                       # number of times the CC registers were read
system.cpu.num_cc_register_writes            23716768                       # number of times the CC registers were written
system.cpu.num_conditional_control_insts      1772711                       # number of instructions that are conditional controls
system.cpu.num_fp_alu_accesses                  88188                       # Number of float alu accesses
system.cpu.num_fp_insts                         88188                       # number of float instructions
system.cpu.num_fp_register_reads               138104                       # number of times the floating registers were read
system.cpu.num_fp_register_writes               76749                       # number of times the floating registers were written
system.cpu.num_func_calls                        3652                       # number of times a function call or return occured
system.cpu.num_idle_cycles                   0.001000                       # Number of idle cycles
system.cpu.num_int_alu_accesses              42832511                       # Number of integer alu accesses
system.cpu.num_int_insts                     42832511                       # number of integer instructions
system.cpu.num_int_register_reads            84419046                       # number of times the integer registers were read
system.cpu.num_int_register_writes           44342654                       # number of times the integer registers were written
system.cpu.num_load_insts                     5153143                       # Number of load instructions
system.cpu.num_mem_refs                       5220060                       # number of memory refs
system.cpu.num_store_insts                      66917                       # Number of store instructions
system.cpu.num_vec_alu_accesses                     0                       # Number of vector alu accesses
system.cpu.num_vec_insts                            0                       # number of vector instructions
system.cpu.num_vec_register_reads                   0                       # number of times the vector registers were read
system.cpu.num_vec_register_writes                  0                       # number of times the vector registers were written
system.cpu.op_class::No_OpClass                123874      0.29%      0.29% # Class of executed instruction
system.cpu.op_class::IntAlu                  34300725     79.74%     80.03% # Class of executed instruction
system.cpu.op_class::IntMult                  3272661      7.61%     87.64% # Class of executed instruction
system.cpu.op_class::IntDiv                     50585      0.12%     87.75% # Class of executed instruction
system.cpu.op_class::FloatAdd                    8129      0.02%     87.77% # Class of executed instruction
system.cpu.op_class::FloatCmp                       0      0.00%     87.77% # Class of executed instruction
system.cpu.op_class::FloatCvt                       0      0.00%     87.77% # Class of executed instruction
system.cpu.op_class::FloatMult                      0      0.00%     87.77% # Class of executed instruction
system.cpu.op_class::FloatMultAcc                   0      0.00%     87.77% # Class of executed instruction
system.cpu.op_class::FloatDiv                       0      0.00%     87.77% # Class of executed instruction
system.cpu.op_class::FloatMisc                      0      0.00%     87.77% # Class of executed instruction
system.cpu.op_class::FloatSqrt                      0      0.00%     87.77% # Class of executed instruction
system.cpu.op_class::SimdAdd                      374      0.00%     87.77% # Class of executed instruction
system.cpu.op_class::SimdAddAcc                     0      0.00%     87.77% # Class of executed instruction
system.cpu.op_class::SimdAlu                     4064      0.01%     87.78% # Class of executed instruction
system.cpu.op_class::SimdCmp                        0      0.00%     87.78% # Class of executed instruction
system.cpu.op_class::SimdCvt                      128      0.00%     87.78% # Class of executed instruction
system.cpu.op_class::SimdMisc                    5418      0.01%     87.80% # Class of executed instruction
system.cpu.op_class::SimdMult                       0      0.00%     87.80% # Class of executed instruction
system.cpu.op_class::SimdMultAcc                    0      0.00%     87.80% # Class of executed instruction
system.cpu.op_class::SimdShift                    186      0.00%     87.80% # Class of executed instruction
system.cpu.op_class::SimdShiftAcc                   0      0.00%     87.80% # Class of executed instruction
system.cpu.op_class::SimdDiv                        0      0.00%     87.80% # Class of executed instruction
system.cpu.op_class::SimdSqrt                       0      0.00%     87.80% # Class of executed instruction
system.cpu.op_class::SimdFloatAdd               12512      0.03%     87.82% # Class of executed instruction
system.cpu.op_class::SimdFloatAlu                   0      0.00%     87.82% # Class of executed instruction
system.cpu.op_class::SimdFloatCmp                   0      0.00%     87.82% # Class of executed instruction
system.cpu.op_class::SimdFloatCvt                4945      0.01%     87.84% # Class of executed instruction
system.cpu.op_class::SimdFloatDiv                 738      0.00%     87.84% # Class of executed instruction
system.cpu.op_class::SimdFloatMisc                  0      0.00%     87.84% # Class of executed instruction
system.cpu.op_class::SimdFloatMult              11557      0.03%     87.86% # Class of executed instruction
system.cpu.op_class::SimdFloatMultAcc               0      0.00%     87.86% # Class of executed instruction
system.cpu.op_class::SimdFloatSqrt                  0      0.00%     87.86% # Class of executed instruction
system.cpu.op_class::SimdReduceAdd                  0      0.00%     87.86% # Class of executed instruction
system.cpu.op_class::SimdReduceAlu                  0      0.00%     87.86% # Class of executed instruction
system.cpu.op_class::SimdReduceCmp                  0      0.00%     87.86% # Class of executed instruction
system.cpu.op_class::SimdFloatReduceAdd             0      0.00%     87.86% # Class of executed instruction
system.cpu.op_class::SimdFloatReduceCmp             0      0.00%     87.86% # Class of executed instruction
system.cpu.op_class::SimdAes                        0      0.00%     87.86% # Class of executed instruction
system.cpu.op_class::SimdAesMix                     0      0.00%     87.86% # Class of executed instruction
system.cpu.op_class::SimdSha1Hash                   0      0.00%     87.86% # Class of executed instruction
system.cpu.op_class::SimdSha1Hash2                  0      0.00%     87.86% # Class of executed instruction
system.cpu.op_class::SimdSha256Hash                 0      0.00%     87.86% # Class of executed instruction
system.cpu.op_class::SimdSha256Hash2                0      0.00%     87.86% # Class of executed instruction
system.cpu.op_class::SimdShaSigma2                  0      0.00%     87.86% # Class of executed instruction
system.cpu.op_class::SimdShaSigma3                  0      0.00%     87.86% # Class of executed instruction
system.cpu.op_class::SimdPredAlu                    0      0.00%     87.86% # Class of executed instruction
system.cpu.op_class::MemRead                  5134469     11.94%     99.80% # Class of executed instruction
system.cpu.op_class::MemWrite                   62176      0.14%     99.95% # Class of executed instruction
system.cpu.op_class::FloatMemRead               18674      0.04%     99.99% # Class of executed instruction
system.cpu.op_class::FloatMemWrite               4741      0.01%    100.00% # Class of executed instruction
system.cpu.op_class::IprAccess                      0      0.00%    100.00% # Class of executed instruction
system.cpu.op_class::InstPrefetch                   0      0.00%    100.00% # Class of executed instruction
system.cpu.op_class::total                   43015956                       # Class of executed instruction
system.cpu.workload.numSyscalls                    17                       # Number of system calls
system.l2bus.snoop_filter.hit_multi_requests            1                       # Number of requests hitting in the snoop filter with multiple (>1) holders of the requested data.
system.l2bus.snoop_filter.hit_multi_snoops            0                       # Number of snoops hitting in the snoop filter with multiple (>1) holders of the requested data.
system.l2bus.snoop_filter.hit_single_requests         2898                       # Number of requests hitting in the snoop filter with a single holder of the requested data.
system.l2bus.snoop_filter.hit_single_snoops          148                       # Number of snoops hitting in the snoop filter with a single holder of the requested data.
system.l2bus.snoop_filter.tot_requests           6305                       # Total number of requests made to the snoop filter.
system.l2bus.snoop_filter.tot_snoops              148                       # Total number of snoops made to the snoop filter.
system.membus.snoop_filter.hit_multi_requests            0                       # Number of requests hitting in the snoop filter with multiple (>1) holders of the requested data.
system.membus.snoop_filter.hit_multi_snoops            0                       # Number of snoops hitting in the snoop filter with multiple (>1) holders of the requested data.
system.membus.snoop_filter.hit_single_requests          204                       # Number of requests hitting in the snoop filter with a single holder of the requested data.
system.membus.snoop_filter.hit_single_snoops            0                       # Number of snoops hitting in the snoop filter with a single holder of the requested data.
system.membus.snoop_filter.tot_requests          1858                       # Total number of requests made to the snoop filter.
system.membus.snoop_filter.tot_snoops               0                       # Total number of snoops made to the snoop filter.
system.membus.trans_dist::ReadResp               1118                       # Transaction distribution
system.membus.trans_dist::WritebackDirty           47                       # Transaction distribution
system.membus.trans_dist::CleanEvict              157                       # Transaction distribution
system.membus.trans_dist::ReadExReq               536                       # Transaction distribution
system.membus.trans_dist::ReadExResp              536                       # Transaction distribution
system.membus.trans_dist::ReadSharedReq          1118                       # Transaction distribution
system.membus.pkt_count_system.l2cache.mem_side::system.mem_ctrl.port         3512                       # Packet count per connected master and slave (bytes)
system.membus.pkt_count_system.l2cache.mem_side::total         3512                       # Packet count per connected master and slave (bytes)
system.membus.pkt_count::total                   3512                       # Packet count per connected master and slave (bytes)
system.membus.pkt_size_system.l2cache.mem_side::system.mem_ctrl.port       108864                       # Cumulative packet size per connected master and slave (bytes)
system.membus.pkt_size_system.l2cache.mem_side::total       108864                       # Cumulative packet size per connected master and slave (bytes)
system.membus.pkt_size::total                  108864                       # Cumulative packet size per connected master and slave (bytes)
system.membus.snoops                                0                       # Total snoops (count)
system.membus.snoopTraffic                          0                       # Total snoop traffic (bytes)
system.membus.snoop_fanout::samples              1654                       # Request fanout histogram
system.membus.snoop_fanout::mean                    0                       # Request fanout histogram
system.membus.snoop_fanout::stdev                   0                       # Request fanout histogram
system.membus.snoop_fanout::underflows              0      0.00%      0.00% # Request fanout histogram
system.membus.snoop_fanout::0                    1654    100.00%    100.00% # Request fanout histogram
system.membus.snoop_fanout::1                       0      0.00%    100.00% # Request fanout histogram
system.membus.snoop_fanout::overflows               0      0.00%    100.00% # Request fanout histogram
system.membus.snoop_fanout::min_value               0                       # Request fanout histogram
system.membus.snoop_fanout::max_value               0                       # Request fanout histogram
system.membus.snoop_fanout::total                1654                       # Request fanout histogram
system.membus.reqLayer0.occupancy             2046000                       # Layer occupancy (ticks)
system.membus.reqLayer0.utilization               0.0                       # Layer utilization (%)
system.membus.respLayer0.occupancy            8789250                       # Layer occupancy (ticks)
system.membus.respLayer0.utilization              0.0                       # Layer utilization (%)
system.membus.power_state.pwrStateResidencyTicks::UNDEFINED  69937771000                       # Cumulative time (in ticks) in various power states
system.l2bus.trans_dist::ReadResp                2360                       # Transaction distribution
system.l2bus.trans_dist::WritebackDirty          1955                       # Transaction distribution
system.l2bus.trans_dist::CleanEvict              1206                       # Transaction distribution
system.l2bus.trans_dist::ReadExReq               1047                       # Transaction distribution
system.l2bus.trans_dist::ReadExResp              1047                       # Transaction distribution
system.l2bus.trans_dist::ReadSharedReq           2360                       # Transaction distribution
system.l2bus.pkt_count_system.cpu.icache.mem_side::system.l2cache.cpu_side         2069                       # Packet count per connected master and slave (bytes)
system.l2bus.pkt_count_system.cpu.dcache.mem_side::system.l2cache.cpu_side         7643                       # Packet count per connected master and slave (bytes)
system.l2bus.pkt_count::total                    9712                       # Packet count per connected master and slave (bytes)
system.l2bus.pkt_size_system.cpu.icache.mem_side::system.l2cache.cpu_side        49536                       # Cumulative packet size per connected master and slave (bytes)
system.l2bus.pkt_size_system.cpu.dcache.mem_side::system.l2cache.cpu_side       290624                       # Cumulative packet size per connected master and slave (bytes)
system.l2bus.pkt_size::total                   340160                       # Cumulative packet size per connected master and slave (bytes)
system.l2bus.snoops                               263                       # Total snoops (count)
system.l2bus.snoopTraffic                        3008                       # Total snoop traffic (bytes)
system.l2bus.snoop_fanout::samples               3670                       # Request fanout histogram
system.l2bus.snoop_fanout::mean              0.040599                       # Request fanout histogram
system.l2bus.snoop_fanout::stdev             0.197387                       # Request fanout histogram
system.l2bus.snoop_fanout::underflows               0      0.00%      0.00% # Request fanout histogram
system.l2bus.snoop_fanout::0                     3521     95.94%     95.94% # Request fanout histogram
system.l2bus.snoop_fanout::1                      149      4.06%    100.00% # Request fanout histogram
system.l2bus.snoop_fanout::2                        0      0.00%    100.00% # Request fanout histogram
system.l2bus.snoop_fanout::overflows                0      0.00%    100.00% # Request fanout histogram
system.l2bus.snoop_fanout::min_value                0                       # Request fanout histogram
system.l2bus.snoop_fanout::max_value                1                       # Request fanout histogram
system.l2bus.snoop_fanout::total                 3670                       # Request fanout histogram
system.l2bus.reqLayer0.occupancy             10121000                       # Layer occupancy (ticks)
system.l2bus.reqLayer0.utilization                0.0                       # Layer utilization (%)
system.l2bus.respLayer1.occupancy             7899000                       # Layer occupancy (ticks)
system.l2bus.respLayer1.utilization               0.0                       # Layer utilization (%)
system.l2bus.respLayer0.occupancy             2322000                       # Layer occupancy (ticks)
system.l2bus.respLayer0.utilization               0.0                       # Layer utilization (%)
system.l2bus.power_state.pwrStateResidencyTicks::UNDEFINED  69937771000                       # Cumulative time (in ticks) in various power states
system.clk_domain.clock                          1000                       # Clock period in ticks
system.clk_domain.voltage_domain.voltage            1                       # Voltage in Volts
system.cpu.icache.demand_hits::.cpu.inst     29674693                       # number of demand (read+write) hits
system.cpu.icache.demand_hits::total         29674693                       # number of demand (read+write) hits
system.cpu.icache.overall_hits::.cpu.inst     29674693                       # number of overall hits
system.cpu.icache.overall_hits::total        29674693                       # number of overall hits
system.cpu.icache.demand_misses::.cpu.inst          774                       # number of demand (read+write) misses
system.cpu.icache.demand_misses::total            774                       # number of demand (read+write) misses
system.cpu.icache.overall_misses::.cpu.inst          774                       # number of overall misses
system.cpu.icache.overall_misses::total           774                       # number of overall misses
system.cpu.icache.demand_miss_latency::.cpu.inst     56312000                       # number of demand (read+write) miss cycles
system.cpu.icache.demand_miss_latency::total     56312000                       # number of demand (read+write) miss cycles
system.cpu.icache.overall_miss_latency::.cpu.inst     56312000                       # number of overall miss cycles
system.cpu.icache.overall_miss_latency::total     56312000                       # number of overall miss cycles
system.cpu.icache.demand_accesses::.cpu.inst     29675467                       # number of demand (read+write) accesses
system.cpu.icache.demand_accesses::total     29675467                       # number of demand (read+write) accesses
system.cpu.icache.overall_accesses::.cpu.inst     29675467                       # number of overall (read+write) accesses
system.cpu.icache.overall_accesses::total     29675467                       # number of overall (read+write) accesses
system.cpu.icache.demand_miss_rate::.cpu.inst     0.000026                       # miss rate for demand accesses
system.cpu.icache.demand_miss_rate::total     0.000026                       # miss rate for demand accesses
system.cpu.icache.overall_miss_rate::.cpu.inst     0.000026                       # miss rate for overall accesses
system.cpu.icache.overall_miss_rate::total     0.000026                       # miss rate for overall accesses
system.cpu.icache.demand_avg_miss_latency::.cpu.inst 72754.521964                       # average overall miss latency
system.cpu.icache.demand_avg_miss_latency::total 72754.521964                       # average overall miss latency
system.cpu.icache.overall_avg_miss_latency::.cpu.inst 72754.521964                       # average overall miss latency
system.cpu.icache.overall_avg_miss_latency::total 72754.521964                       # average overall miss latency
system.cpu.icache.blocked_cycles::no_mshrs            0                       # number of cycles access was blocked
system.cpu.icache.blocked_cycles::no_targets            0                       # number of cycles access was blocked
system.cpu.icache.blocked::no_mshrs                 0                       # number of cycles access was blocked
system.cpu.icache.blocked::no_targets               0                       # number of cycles access was blocked
system.cpu.icache.avg_blocked_cycles::no_mshrs          nan                       # average number of cycles each access was blocked
system.cpu.icache.avg_blocked_cycles::no_targets          nan                       # average number of cycles each access was blocked
system.cpu.icache.demand_mshr_misses::.cpu.inst          774                       # number of demand (read+write) MSHR misses
system.cpu.icache.demand_mshr_misses::total          774                       # number of demand (read+write) MSHR misses
system.cpu.icache.overall_mshr_misses::.cpu.inst          774                       # number of overall MSHR misses
system.cpu.icache.overall_mshr_misses::total          774                       # number of overall MSHR misses
system.cpu.icache.demand_mshr_miss_latency::.cpu.inst     54764000                       # number of demand (read+write) MSHR miss cycles
system.cpu.icache.demand_mshr_miss_latency::total     54764000                       # number of demand (read+write) MSHR miss cycles
system.cpu.icache.overall_mshr_miss_latency::.cpu.inst     54764000                       # number of overall MSHR miss cycles
system.cpu.icache.overall_mshr_miss_latency::total     54764000                       # number of overall MSHR miss cycles
system.cpu.icache.demand_mshr_miss_rate::.cpu.inst     0.000026                       # mshr miss rate for demand accesses
system.cpu.icache.demand_mshr_miss_rate::total     0.000026                       # mshr miss rate for demand accesses
system.cpu.icache.overall_mshr_miss_rate::.cpu.inst     0.000026                       # mshr miss rate for overall accesses
system.cpu.icache.overall_mshr_miss_rate::total     0.000026                       # mshr miss rate for overall accesses
system.cpu.icache.demand_avg_mshr_miss_latency::.cpu.inst 70754.521964                       # average overall mshr miss latency
system.cpu.icache.demand_avg_mshr_miss_latency::total 70754.521964                       # average overall mshr miss latency
system.cpu.icache.overall_avg_mshr_miss_latency::.cpu.inst 70754.521964                       # average overall mshr miss latency
system.cpu.icache.overall_avg_mshr_miss_latency::total 70754.521964                       # average overall mshr miss latency
system.cpu.icache.replacements                    521                       # number of replacements
system.cpu.icache.ReadReq_hits::.cpu.inst     29674693                       # number of ReadReq hits
system.cpu.icache.ReadReq_hits::total        29674693                       # number of ReadReq hits
system.cpu.icache.ReadReq_misses::.cpu.inst          774                       # number of ReadReq misses
system.cpu.icache.ReadReq_misses::total           774                       # number of ReadReq misses
system.cpu.icache.ReadReq_miss_latency::.cpu.inst     56312000                       # number of ReadReq miss cycles
system.cpu.icache.ReadReq_miss_latency::total     56312000                       # number of ReadReq miss cycles
system.cpu.icache.ReadReq_accesses::.cpu.inst     29675467                       # number of ReadReq accesses(hits+misses)
system.cpu.icache.ReadReq_accesses::total     29675467                       # number of ReadReq accesses(hits+misses)
system.cpu.icache.ReadReq_miss_rate::.cpu.inst     0.000026                       # miss rate for ReadReq accesses
system.cpu.icache.ReadReq_miss_rate::total     0.000026                       # miss rate for ReadReq accesses
system.cpu.icache.ReadReq_avg_miss_latency::.cpu.inst 72754.521964                       # average ReadReq miss latency
system.cpu.icache.ReadReq_avg_miss_latency::total 72754.521964                       # average ReadReq miss latency
system.cpu.icache.ReadReq_mshr_misses::.cpu.inst          774                       # number of ReadReq MSHR misses
system.cpu.icache.ReadReq_mshr_misses::total          774                       # number of ReadReq MSHR misses
system.cpu.icache.ReadReq_mshr_miss_latency::.cpu.inst     54764000                       # number of ReadReq MSHR miss cycles
system.cpu.icache.ReadReq_mshr_miss_latency::total     54764000                       # number of ReadReq MSHR miss cycles
system.cpu.icache.ReadReq_mshr_miss_rate::.cpu.inst     0.000026                       # mshr miss rate for ReadReq accesses
system.cpu.icache.ReadReq_mshr_miss_rate::total     0.000026                       # mshr miss rate for ReadReq accesses
system.cpu.icache.ReadReq_avg_mshr_miss_latency::.cpu.inst 70754.521964                       # average ReadReq mshr miss latency
system.cpu.icache.ReadReq_avg_mshr_miss_latency::total 70754.521964                       # average ReadReq mshr miss latency
system.cpu.icache.power_state.pwrStateResidencyTicks::UNDEFINED  69937771000                       # Cumulative time (in ticks) in various power states
system.cpu.icache.tags.tagsinuse           251.844743                       # Cycle average of tags in use
system.cpu.icache.tags.total_refs            29675467                       # Total number of references to valid blocks.
system.cpu.icache.tags.sampled_refs               774                       # Sample count of references to valid blocks.
system.cpu.icache.tags.avg_refs          38340.396641                       # Average number of references to valid blocks.
system.cpu.icache.tags.warmup_cycle             88000                       # Cycle when the warmup percentage was hit.
system.cpu.icache.tags.occ_blocks::.cpu.inst   251.844743                       # Average occupied blocks per requestor
system.cpu.icache.tags.occ_percent::.cpu.inst     0.983769                       # Average percentage of cache occupancy
system.cpu.icache.tags.occ_percent::total     0.983769                       # Average percentage of cache occupancy
system.cpu.icache.tags.occ_task_id_blocks::1024          253                       # Occupied blocks per task id
system.cpu.icache.tags.age_task_id_blocks_1024::0           88                       # Occupied blocks per task id
system.cpu.icache.tags.age_task_id_blocks_1024::1           57                       # Occupied blocks per task id
system.cpu.icache.tags.age_task_id_blocks_1024::4          108                       # Occupied blocks per task id
system.cpu.icache.tags.occ_task_id_percent::1024     0.988281                       # Percentage of cache occupancy per task id
system.cpu.icache.tags.tag_accesses          59351708                       # Number of tag accesses
system.cpu.icache.tags.data_accesses         59351708                       # Number of data accesses
system.cpu.icache.tags.power_state.pwrStateResidencyTicks::UNDEFINED  69937771000                       # Cumulative time (in ticks) in various power states
system.cpu.dtb.walker.power_state.pwrStateResidencyTicks::UNDEFINED  69937771000                       # Cumulative time (in ticks) in various power states
system.cpu.interrupts.clk_domain.clock          16000                       # Clock period in ticks
system.cpu.itb.walker.power_state.pwrStateResidencyTicks::UNDEFINED  69937771000                       # Cumulative time (in ticks) in various power states
system.cpu.dcache.demand_hits::.cpu.data      5216674                       # number of demand (read+write) hits
system.cpu.dcache.demand_hits::total          5216674                       # number of demand (read+write) hits
system.cpu.dcache.overall_hits::.cpu.data      5216969                       # number of overall hits
system.cpu.dcache.overall_hits::total         5216969                       # number of overall hits
system.cpu.dcache.demand_misses::.cpu.data         2480                       # number of demand (read+write) misses
system.cpu.dcache.demand_misses::total           2480                       # number of demand (read+write) misses
system.cpu.dcache.overall_misses::.cpu.data         2633                       # number of overall misses
system.cpu.dcache.overall_misses::total          2633                       # number of overall misses
system.cpu.dcache.demand_miss_latency::.cpu.data     98544000                       # number of demand (read+write) miss cycles
system.cpu.dcache.demand_miss_latency::total     98544000                       # number of demand (read+write) miss cycles
system.cpu.dcache.overall_miss_latency::.cpu.data     98544000                       # number of overall miss cycles
system.cpu.dcache.overall_miss_latency::total     98544000                       # number of overall miss cycles
system.cpu.dcache.demand_accesses::.cpu.data      5219154                       # number of demand (read+write) accesses
system.cpu.dcache.demand_accesses::total      5219154                       # number of demand (read+write) accesses
system.cpu.dcache.overall_accesses::.cpu.data      5219602                       # number of overall (read+write) accesses
system.cpu.dcache.overall_accesses::total      5219602                       # number of overall (read+write) accesses
system.cpu.dcache.demand_miss_rate::.cpu.data     0.000475                       # miss rate for demand accesses
system.cpu.dcache.demand_miss_rate::total     0.000475                       # miss rate for demand accesses
system.cpu.dcache.overall_miss_rate::.cpu.data     0.000504                       # miss rate for overall accesses
system.cpu.dcache.overall_miss_rate::total     0.000504                       # miss rate for overall accesses
system.cpu.dcache.demand_avg_miss_latency::.cpu.data 39735.483871                       # average overall miss latency
system.cpu.dcache.demand_avg_miss_latency::total 39735.483871                       # average overall miss latency
system.cpu.dcache.overall_avg_miss_latency::.cpu.data 37426.509685                       # average overall miss latency
system.cpu.dcache.overall_avg_miss_latency::total 37426.509685                       # average overall miss latency
system.cpu.dcache.blocked_cycles::no_mshrs            0                       # number of cycles access was blocked
system.cpu.dcache.blocked_cycles::no_targets            0                       # number of cycles access was blocked
system.cpu.dcache.blocked::no_mshrs                 0                       # number of cycles access was blocked
system.cpu.dcache.blocked::no_targets               0                       # number of cycles access was blocked
system.cpu.dcache.avg_blocked_cycles::no_mshrs          nan                       # average number of cycles each access was blocked
system.cpu.dcache.avg_blocked_cycles::no_targets          nan                       # average number of cycles each access was blocked
system.cpu.dcache.writebacks::.writebacks         1908                       # number of writebacks
system.cpu.dcache.writebacks::total              1908                       # number of writebacks
system.cpu.dcache.demand_mshr_misses::.cpu.data         2480                       # number of demand (read+write) MSHR misses
system.cpu.dcache.demand_mshr_misses::total         2480                       # number of demand (read+write) MSHR misses
system.cpu.dcache.overall_mshr_misses::.cpu.data         2633                       # number of overall MSHR misses
system.cpu.dcache.overall_mshr_misses::total         2633                       # number of overall MSHR misses
system.cpu.dcache.demand_mshr_miss_latency::.cpu.data     93584000                       # number of demand (read+write) MSHR miss cycles
system.cpu.dcache.demand_mshr_miss_latency::total     93584000                       # number of demand (read+write) MSHR miss cycles
system.cpu.dcache.overall_mshr_miss_latency::.cpu.data    102882000                       # number of overall MSHR miss cycles
system.cpu.dcache.overall_mshr_miss_latency::total    102882000                       # number of overall MSHR miss cycles
system.cpu.dcache.demand_mshr_miss_rate::.cpu.data     0.000475                       # mshr miss rate for demand accesses
system.cpu.dcache.demand_mshr_miss_rate::total     0.000475                       # mshr miss rate for demand accesses
system.cpu.dcache.overall_mshr_miss_rate::.cpu.data     0.000504                       # mshr miss rate for overall accesses
system.cpu.dcache.overall_mshr_miss_rate::total     0.000504                       # mshr miss rate for overall accesses
system.cpu.dcache.demand_avg_mshr_miss_latency::.cpu.data 37735.483871                       # average overall mshr miss latency
system.cpu.dcache.demand_avg_mshr_miss_latency::total 37735.483871                       # average overall mshr miss latency
system.cpu.dcache.overall_avg_mshr_miss_latency::.cpu.data 39074.060008                       # average overall mshr miss latency
system.cpu.dcache.overall_avg_mshr_miss_latency::total 39074.060008                       # average overall mshr miss latency
system.cpu.dcache.replacements                   2377                       # number of replacements
system.cpu.dcache.ReadReq_hits::.cpu.data      5151491                       # number of ReadReq hits
system.cpu.dcache.ReadReq_hits::total         5151491                       # number of ReadReq hits
system.cpu.dcache.ReadReq_misses::.cpu.data         1433                       # number of ReadReq misses
system.cpu.dcache.ReadReq_misses::total          1433                       # number of ReadReq misses
system.cpu.dcache.ReadReq_miss_latency::.cpu.data     46665000                       # number of ReadReq miss cycles
system.cpu.dcache.ReadReq_miss_latency::total     46665000                       # number of ReadReq miss cycles
system.cpu.dcache.ReadReq_accesses::.cpu.data      5152924                       # number of ReadReq accesses(hits+misses)
system.cpu.dcache.ReadReq_accesses::total      5152924                       # number of ReadReq accesses(hits+misses)
system.cpu.dcache.ReadReq_miss_rate::.cpu.data     0.000278                       # miss rate for ReadReq accesses
system.cpu.dcache.ReadReq_miss_rate::total     0.000278                       # miss rate for ReadReq accesses
system.cpu.dcache.ReadReq_avg_miss_latency::.cpu.data 32564.549895                       # average ReadReq miss latency
system.cpu.dcache.ReadReq_avg_miss_latency::total 32564.549895                       # average ReadReq miss latency
system.cpu.dcache.ReadReq_mshr_misses::.cpu.data         1433                       # number of ReadReq MSHR misses
system.cpu.dcache.ReadReq_mshr_misses::total         1433                       # number of ReadReq MSHR misses
system.cpu.dcache.ReadReq_mshr_miss_latency::.cpu.data     43799000                       # number of ReadReq MSHR miss cycles
system.cpu.dcache.ReadReq_mshr_miss_latency::total     43799000                       # number of ReadReq MSHR miss cycles
system.cpu.dcache.ReadReq_mshr_miss_rate::.cpu.data     0.000278                       # mshr miss rate for ReadReq accesses
system.cpu.dcache.ReadReq_mshr_miss_rate::total     0.000278                       # mshr miss rate for ReadReq accesses
system.cpu.dcache.ReadReq_avg_mshr_miss_latency::.cpu.data 30564.549895                       # average ReadReq mshr miss latency
system.cpu.dcache.ReadReq_avg_mshr_miss_latency::total 30564.549895                       # average ReadReq mshr miss latency
system.cpu.dcache.WriteReq_hits::.cpu.data        65183                       # number of WriteReq hits
system.cpu.dcache.WriteReq_hits::total          65183                       # number of WriteReq hits
system.cpu.dcache.WriteReq_misses::.cpu.data         1047                       # number of WriteReq misses
system.cpu.dcache.WriteReq_misses::total         1047                       # number of WriteReq misses
system.cpu.dcache.WriteReq_miss_latency::.cpu.data     51879000                       # number of WriteReq miss cycles
system.cpu.dcache.WriteReq_miss_latency::total     51879000                       # number of WriteReq miss cycles
system.cpu.dcache.WriteReq_accesses::.cpu.data        66230                       # number of WriteReq accesses(hits+misses)
system.cpu.dcache.WriteReq_accesses::total        66230                       # number of WriteReq accesses(hits+misses)
system.cpu.dcache.WriteReq_miss_rate::.cpu.data     0.015809                       # miss rate for WriteReq accesses
system.cpu.dcache.WriteReq_miss_rate::total     0.015809                       # miss rate for WriteReq accesses
system.cpu.dcache.WriteReq_avg_miss_latency::.cpu.data 49550.143266                       # average WriteReq miss latency
system.cpu.dcache.WriteReq_avg_miss_latency::total 49550.143266                       # average WriteReq miss latency
system.cpu.dcache.WriteReq_mshr_misses::.cpu.data         1047                       # number of WriteReq MSHR misses
system.cpu.dcache.WriteReq_mshr_misses::total         1047                       # number of WriteReq MSHR misses
system.cpu.dcache.WriteReq_mshr_miss_latency::.cpu.data     49785000                       # number of WriteReq MSHR miss cycles
system.cpu.dcache.WriteReq_mshr_miss_latency::total     49785000                       # number of WriteReq MSHR miss cycles
system.cpu.dcache.WriteReq_mshr_miss_rate::.cpu.data     0.015809                       # mshr miss rate for WriteReq accesses
system.cpu.dcache.WriteReq_mshr_miss_rate::total     0.015809                       # mshr miss rate for WriteReq accesses
system.cpu.dcache.WriteReq_avg_mshr_miss_latency::.cpu.data 47550.143266                       # average WriteReq mshr miss latency
system.cpu.dcache.WriteReq_avg_mshr_miss_latency::total 47550.143266                       # average WriteReq mshr miss latency
system.cpu.dcache.SoftPFReq_hits::.cpu.data          295                       # number of SoftPFReq hits
system.cpu.dcache.SoftPFReq_hits::total           295                       # number of SoftPFReq hits
system.cpu.dcache.SoftPFReq_misses::.cpu.data          153                       # number of SoftPFReq misses
system.cpu.dcache.SoftPFReq_misses::total          153                       # number of SoftPFReq misses
system.cpu.dcache.SoftPFReq_accesses::.cpu.data          448                       # number of SoftPFReq accesses(hits+misses)
system.cpu.dcache.SoftPFReq_accesses::total          448                       # number of SoftPFReq accesses(hits+misses)
system.cpu.dcache.SoftPFReq_miss_rate::.cpu.data     0.341518                       # miss rate for SoftPFReq accesses
system.cpu.dcache.SoftPFReq_miss_rate::total     0.341518                       # miss rate for SoftPFReq accesses
system.cpu.dcache.SoftPFReq_mshr_misses::.cpu.data          153                       # number of SoftPFReq MSHR misses
system.cpu.dcache.SoftPFReq_mshr_misses::total          153                       # number of SoftPFReq MSHR misses
system.cpu.dcache.SoftPFReq_mshr_miss_latency::.cpu.data      9298000                       # number of SoftPFReq MSHR miss cycles
system.cpu.dcache.SoftPFReq_mshr_miss_latency::total      9298000                       # number of SoftPFReq MSHR miss cycles
system.cpu.dcache.SoftPFReq_mshr_miss_rate::.cpu.data     0.341518                       # mshr miss rate for SoftPFReq accesses
system.cpu.dcache.SoftPFReq_mshr_miss_rate::total     0.341518                       # mshr miss rate for SoftPFReq accesses
system.cpu.dcache.SoftPFReq_avg_mshr_miss_latency::.cpu.data 60771.241830                       # average SoftPFReq mshr miss latency
system.cpu.dcache.SoftPFReq_avg_mshr_miss_latency::total 60771.241830                       # average SoftPFReq mshr miss latency
system.cpu.dcache.power_state.pwrStateResidencyTicks::UNDEFINED  69937771000                       # Cumulative time (in ticks) in various power states
system.cpu.dcache.tags.tagsinuse           255.838884                       # Cycle average of tags in use
system.cpu.dcache.tags.total_refs             5219602                       # Total number of references to valid blocks.
system.cpu.dcache.tags.sampled_refs              2633                       # Sample count of references to valid blocks.
system.cpu.dcache.tags.avg_refs           1982.378276                       # Average number of references to valid blocks.
system.cpu.dcache.tags.warmup_cycle            181000                       # Cycle when the warmup percentage was hit.
system.cpu.dcache.tags.occ_blocks::.cpu.data   255.838884                       # Average occupied blocks per requestor
system.cpu.dcache.tags.occ_percent::.cpu.data     0.999371                       # Average percentage of cache occupancy
system.cpu.dcache.tags.occ_percent::total     0.999371                       # Average percentage of cache occupancy
system.cpu.dcache.tags.occ_task_id_blocks::1024          256                       # Occupied blocks per task id
system.cpu.dcache.tags.age_task_id_blocks_1024::0           39                       # Occupied blocks per task id
system.cpu.dcache.tags.age_task_id_blocks_1024::1          155                       # Occupied blocks per task id
system.cpu.dcache.tags.age_task_id_blocks_1024::3            7                       # Occupied blocks per task id
system.cpu.dcache.tags.age_task_id_blocks_1024::4           55                       # Occupied blocks per task id
system.cpu.dcache.tags.occ_task_id_percent::1024            1                       # Percentage of cache occupancy per task id
system.cpu.dcache.tags.tag_accesses          10441837                       # Number of tag accesses
system.cpu.dcache.tags.data_accesses         10441837                       # Number of data accesses
system.cpu.dcache.tags.power_state.pwrStateResidencyTicks::UNDEFINED  69937771000                       # Cumulative time (in ticks) in various power states
system.cpu.power_state.numTransitions               1                       # Number of power state transitions
system.cpu.power_state.pwrStateResidencyTicks::ON  69937771000                       # Cumulative time (in ticks) in various power states
system.l2cache.demand_hits::.cpu.inst             103                       # number of demand (read+write) hits
system.l2cache.demand_hits::.cpu.data            1650                       # number of demand (read+write) hits
system.l2cache.demand_hits::total                1753                       # number of demand (read+write) hits
system.l2cache.overall_hits::.cpu.inst            103                       # number of overall hits
system.l2cache.overall_hits::.cpu.data           1650                       # number of overall hits
system.l2cache.overall_hits::total               1753                       # number of overall hits
system.l2cache.demand_misses::.cpu.inst           671                       # number of demand (read+write) misses
system.l2cache.demand_misses::.cpu.data           983                       # number of demand (read+write) misses
system.l2cache.demand_misses::total              1654                       # number of demand (read+write) misses
system.l2cache.overall_misses::.cpu.inst          671                       # number of overall misses
system.l2cache.overall_misses::.cpu.data          983                       # number of overall misses
system.l2cache.overall_misses::total             1654                       # number of overall misses
system.l2cache.demand_miss_latency::.cpu.inst     51303000                       # number of demand (read+write) miss cycles
system.l2cache.demand_miss_latency::.cpu.data     76111000                       # number of demand (read+write) miss cycles
system.l2cache.demand_miss_latency::total    127414000                       # number of demand (read+write) miss cycles
system.l2cache.overall_miss_latency::.cpu.inst     51303000                       # number of overall miss cycles
system.l2cache.overall_miss_latency::.cpu.data     76111000                       # number of overall miss cycles
system.l2cache.overall_miss_latency::total    127414000                       # number of overall miss cycles
system.l2cache.demand_accesses::.cpu.inst          774                       # number of demand (read+write) accesses
system.l2cache.demand_accesses::.cpu.data         2633                       # number of demand (read+write) accesses
system.l2cache.demand_accesses::total            3407                       # number of demand (read+write) accesses
system.l2cache.overall_accesses::.cpu.inst          774                       # number of overall (read+write) accesses
system.l2cache.overall_accesses::.cpu.data         2633                       # number of overall (read+write) accesses
system.l2cache.overall_accesses::total           3407                       # number of overall (read+write) accesses
system.l2cache.demand_miss_rate::.cpu.inst     0.866925                       # miss rate for demand accesses
system.l2cache.demand_miss_rate::.cpu.data     0.373338                       # miss rate for demand accesses
system.l2cache.demand_miss_rate::total       0.485471                       # miss rate for demand accesses
system.l2cache.overall_miss_rate::.cpu.inst     0.866925                       # miss rate for overall accesses
system.l2cache.overall_miss_rate::.cpu.data     0.373338                       # miss rate for overall accesses
system.l2cache.overall_miss_rate::total      0.485471                       # miss rate for overall accesses
system.l2cache.demand_avg_miss_latency::.cpu.inst 76457.526080                       # average overall miss latency
system.l2cache.demand_avg_miss_latency::.cpu.data 77427.263479                       # average overall miss latency
system.l2cache.demand_avg_miss_latency::total 77033.857316                       # average overall miss latency
system.l2cache.overall_avg_miss_latency::.cpu.inst 76457.526080                       # average overall miss latency
system.l2cache.overall_avg_miss_latency::.cpu.data 77427.263479                       # average overall miss latency
system.l2cache.overall_avg_miss_latency::total 77033.857316                       # average overall miss latency
system.l2cache.blocked_cycles::no_mshrs             0                       # number of cycles access was blocked
system.l2cache.blocked_cycles::no_targets            0                       # number of cycles access was blocked
system.l2cache.blocked::no_mshrs                    0                       # number of cycles access was blocked
system.l2cache.blocked::no_targets                  0                       # number of cycles access was blocked
system.l2cache.avg_blocked_cycles::no_mshrs          nan                       # average number of cycles each access was blocked
system.l2cache.avg_blocked_cycles::no_targets          nan                       # average number of cycles each access was blocked
system.l2cache.writebacks::.writebacks             47                       # number of writebacks
system.l2cache.writebacks::total                   47                       # number of writebacks
system.l2cache.demand_mshr_misses::.cpu.inst          671                       # number of demand (read+write) MSHR misses
system.l2cache.demand_mshr_misses::.cpu.data          983                       # number of demand (read+write) MSHR misses
system.l2cache.demand_mshr_misses::total         1654                       # number of demand (read+write) MSHR misses
system.l2cache.overall_mshr_misses::.cpu.inst          671                       # number of overall MSHR misses
system.l2cache.overall_mshr_misses::.cpu.data          983                       # number of overall MSHR misses
system.l2cache.overall_mshr_misses::total         1654                       # number of overall MSHR misses
system.l2cache.demand_mshr_miss_latency::.cpu.inst     44593000                       # number of demand (read+write) MSHR miss cycles
system.l2cache.demand_mshr_miss_latency::.cpu.data     66281000                       # number of demand (read+write) MSHR miss cycles
system.l2cache.demand_mshr_miss_latency::total    110874000                       # number of demand (read+write) MSHR miss cycles
system.l2cache.overall_mshr_miss_latency::.cpu.inst     44593000                       # number of overall MSHR miss cycles
system.l2cache.overall_mshr_miss_latency::.cpu.data     66281000                       # number of overall MSHR miss cycles
system.l2cache.overall_mshr_miss_latency::total    110874000                       # number of overall MSHR miss cycles
system.l2cache.demand_mshr_miss_rate::.cpu.inst     0.866925                       # mshr miss rate for demand accesses
system.l2cache.demand_mshr_miss_rate::.cpu.data     0.373338                       # mshr miss rate for demand accesses
system.l2cache.demand_mshr_miss_rate::total     0.485471                       # mshr miss rate for demand accesses
system.l2cache.overall_mshr_miss_rate::.cpu.inst     0.866925                       # mshr miss rate for overall accesses
system.l2cache.overall_mshr_miss_rate::.cpu.data     0.373338                       # mshr miss rate for overall accesses
system.l2cache.overall_mshr_miss_rate::total     0.485471                       # mshr miss rate for overall accesses
system.l2cache.demand_avg_mshr_miss_latency::.cpu.inst 66457.526080                       # average overall mshr miss latency
system.l2cache.demand_avg_mshr_miss_latency::.cpu.data 67427.263479                       # average overall mshr miss latency
system.l2cache.demand_avg_mshr_miss_latency::total 67033.857316                       # average overall mshr miss latency
system.l2cache.overall_avg_mshr_miss_latency::.cpu.inst 66457.526080                       # average overall mshr miss latency
system.l2cache.overall_avg_mshr_miss_latency::.cpu.data 67427.263479                       # average overall mshr miss latency
system.l2cache.overall_avg_mshr_miss_latency::total 67033.857316                       # average overall mshr miss latency
system.l2cache.replacements                       263                       # number of replacements
system.l2cache.WritebackDirty_hits::.writebacks         1908                       # number of WritebackDirty hits
system.l2cache.WritebackDirty_hits::total         1908                       # number of WritebackDirty hits
system.l2cache.WritebackDirty_accesses::.writebacks         1908                       # number of WritebackDirty accesses(hits+misses)
system.l2cache.WritebackDirty_accesses::total         1908                       # number of WritebackDirty accesses(hits+misses)
system.l2cache.CleanEvict_mshr_misses::.writebacks           89                       # number of CleanEvict MSHR misses
system.l2cache.CleanEvict_mshr_misses::total           89                       # number of CleanEvict MSHR misses
system.l2cache.CleanEvict_mshr_miss_rate::.writebacks          inf                       # mshr miss rate for CleanEvict accesses
system.l2cache.CleanEvict_mshr_miss_rate::total          inf                       # mshr miss rate for CleanEvict accesses
system.l2cache.ReadExReq_hits::.cpu.data          511                       # number of ReadExReq hits
system.l2cache.ReadExReq_hits::total              511                       # number of ReadExReq hits
system.l2cache.ReadExReq_misses::.cpu.data          536                       # number of ReadExReq misses
system.l2cache.ReadExReq_misses::total            536                       # number of ReadExReq misses
system.l2cache.ReadExReq_miss_latency::.cpu.data     41022000                       # number of ReadExReq miss cycles
system.l2cache.ReadExReq_miss_latency::total     41022000                       # number of ReadExReq miss cycles
system.l2cache.ReadExReq_accesses::.cpu.data         1047                       # number of ReadExReq accesses(hits+misses)
system.l2cache.ReadExReq_accesses::total         1047                       # number of ReadExReq accesses(hits+misses)
system.l2cache.ReadExReq_miss_rate::.cpu.data     0.511939                       # miss rate for ReadExReq accesses
system.l2cache.ReadExReq_miss_rate::total     0.511939                       # miss rate for ReadExReq accesses
system.l2cache.ReadExReq_avg_miss_latency::.cpu.data 76533.582090                       # average ReadExReq miss latency
system.l2cache.ReadExReq_avg_miss_latency::total 76533.582090                       # average ReadExReq miss latency
system.l2cache.ReadExReq_mshr_misses::.cpu.data          536                       # number of ReadExReq MSHR misses
system.l2cache.ReadExReq_mshr_misses::total          536                       # number of ReadExReq MSHR misses
system.l2cache.ReadExReq_mshr_miss_latency::.cpu.data     35662000                       # number of ReadExReq MSHR miss cycles
system.l2cache.ReadExReq_mshr_miss_latency::total     35662000                       # number of ReadExReq MSHR miss cycles
system.l2cache.ReadExReq_mshr_miss_rate::.cpu.data     0.511939                       # mshr miss rate for ReadExReq accesses
system.l2cache.ReadExReq_mshr_miss_rate::total     0.511939                       # mshr miss rate for ReadExReq accesses
system.l2cache.ReadExReq_avg_mshr_miss_latency::.cpu.data 66533.582090                       # average ReadExReq mshr miss latency
system.l2cache.ReadExReq_avg_mshr_miss_latency::total 66533.582090                       # average ReadExReq mshr miss latency
system.l2cache.ReadSharedReq_hits::.cpu.inst          103                       # number of ReadSharedReq hits
system.l2cache.ReadSharedReq_hits::.cpu.data         1139                       # number of ReadSharedReq hits
system.l2cache.ReadSharedReq_hits::total         1242                       # number of ReadSharedReq hits
system.l2cache.ReadSharedReq_misses::.cpu.inst          671                       # number of ReadSharedReq misses
system.l2cache.ReadSharedReq_misses::.cpu.data          447                       # number of ReadSharedReq misses
system.l2cache.ReadSharedReq_misses::total         1118                       # number of ReadSharedReq misses
system.l2cache.ReadSharedReq_miss_latency::.cpu.inst     51303000                       # number of ReadSharedReq miss cycles
system.l2cache.ReadSharedReq_miss_latency::.cpu.data     35089000                       # number of ReadSharedReq miss cycles
system.l2cache.ReadSharedReq_miss_latency::total     86392000                       # number of ReadSharedReq miss cycles
system.l2cache.ReadSharedReq_accesses::.cpu.inst          774                       # number of ReadSharedReq accesses(hits+misses)
system.l2cache.ReadSharedReq_accesses::.cpu.data         1586                       # number of ReadSharedReq accesses(hits+misses)
system.l2cache.ReadSharedReq_accesses::total         2360                       # number of ReadSharedReq accesses(hits+misses)
system.l2cache.ReadSharedReq_miss_rate::.cpu.inst     0.866925                       # miss rate for ReadSharedReq accesses
system.l2cache.ReadSharedReq_miss_rate::.cpu.data     0.281841                       # miss rate for ReadSharedReq accesses
system.l2cache.ReadSharedReq_miss_rate::total     0.473729                       # miss rate for ReadSharedReq accesses
system.l2cache.ReadSharedReq_avg_miss_latency::.cpu.inst 76457.526080                       # average ReadSharedReq miss latency
system.l2cache.ReadSharedReq_avg_miss_latency::.cpu.data 78498.881432                       # average ReadSharedReq miss latency
system.l2cache.ReadSharedReq_avg_miss_latency::total 77273.703041                       # average ReadSharedReq miss latency
system.l2cache.ReadSharedReq_mshr_misses::.cpu.inst          671                       # number of ReadSharedReq MSHR misses
system.l2cache.ReadSharedReq_mshr_misses::.cpu.data          447                       # number of ReadSharedReq MSHR misses
system.l2cache.ReadSharedReq_mshr_misses::total         1118                       # number of ReadSharedReq MSHR misses
system.l2cache.ReadSharedReq_mshr_miss_latency::.cpu.inst     44593000                       # number of ReadSharedReq MSHR miss cycles
system.l2cache.ReadSharedReq_mshr_miss_latency::.cpu.data     30619000                       # number of ReadSharedReq MSHR miss cycles
system.l2cache.ReadSharedReq_mshr_miss_latency::total     75212000                       # number of ReadSharedReq MSHR miss cycles
system.l2cache.ReadSharedReq_mshr_miss_rate::.cpu.inst     0.866925                       # mshr miss rate for ReadSharedReq accesses
system.l2cache.ReadSharedReq_mshr_miss_rate::.cpu.data     0.281841                       # mshr miss rate for ReadSharedReq accesses
system.l2cache.ReadSharedReq_mshr_miss_rate::total     0.473729                       # mshr miss rate for ReadSharedReq accesses
system.l2cache.ReadSharedReq_avg_mshr_miss_latency::.cpu.inst 66457.526080                       # average ReadSharedReq mshr miss latency
system.l2cache.ReadSharedReq_avg_mshr_miss_latency::.cpu.data 68498.881432                       # average ReadSharedReq mshr miss latency
system.l2cache.ReadSharedReq_avg_mshr_miss_latency::total 67273.703041                       # average ReadSharedReq mshr miss latency
system.l2cache.power_state.pwrStateResidencyTicks::UNDEFINED  69937771000                       # Cumulative time (in ticks) in various power states
system.l2cache.tags.tagsinuse             1194.114861                       # Cycle average of tags in use
system.l2cache.tags.total_refs                   6215                       # Total number of references to valid blocks.
system.l2cache.tags.sampled_refs                 1691                       # Sample count of references to valid blocks.
system.l2cache.tags.avg_refs                 3.675340                       # Average number of references to valid blocks.
system.l2cache.tags.warmup_cycle                77000                       # Cycle when the warmup percentage was hit.
system.l2cache.tags.occ_blocks::.writebacks    32.929668                       # Average occupied blocks per requestor
system.l2cache.tags.occ_blocks::.cpu.inst   443.685465                       # Average occupied blocks per requestor
system.l2cache.tags.occ_blocks::.cpu.data   717.499728                       # Average occupied blocks per requestor
system.l2cache.tags.occ_percent::.writebacks     0.008039                       # Average percentage of cache occupancy
system.l2cache.tags.occ_percent::.cpu.inst     0.108322                       # Average percentage of cache occupancy
system.l2cache.tags.occ_percent::.cpu.data     0.175171                       # Average percentage of cache occupancy
system.l2cache.tags.occ_percent::total       0.291532                       # Average percentage of cache occupancy
system.l2cache.tags.occ_task_id_blocks::1024         1428                       # Occupied blocks per task id
system.l2cache.tags.age_task_id_blocks_1024::0           61                       # Occupied blocks per task id
system.l2cache.tags.age_task_id_blocks_1024::1          212                       # Occupied blocks per task id
system.l2cache.tags.age_task_id_blocks_1024::4         1155                       # Occupied blocks per task id
system.l2cache.tags.occ_task_id_percent::1024     0.348633                       # Percentage of cache occupancy per task id
system.l2cache.tags.tag_accesses                 7995                       # Number of tag accesses
system.l2cache.tags.data_accesses                7995                       # Number of data accesses
system.l2cache.tags.power_state.pwrStateResidencyTicks::UNDEFINED  69937771000                       # Cumulative time (in ticks) in various power states
system.mem_ctrl.bytes_read::.cpu.inst           42944                       # Number of bytes read from this memory
system.mem_ctrl.bytes_read::.cpu.data           62912                       # Number of bytes read from this memory
system.mem_ctrl.bytes_read::total              105856                       # Number of bytes read from this memory
system.mem_ctrl.bytes_inst_read::.cpu.inst        42944                       # Number of instructions bytes read from this memory
system.mem_ctrl.bytes_inst_read::total          42944                       # Number of instructions bytes read from this memory
system.mem_ctrl.bytes_written::.writebacks         3008                       # Number of bytes written to this memory
system.mem_ctrl.bytes_written::total             3008                       # Number of bytes written to this memory
system.mem_ctrl.num_reads::.cpu.inst              671                       # Number of read requests responded to by this memory
system.mem_ctrl.num_reads::.cpu.data              983                       # Number of read requests responded to by this memory
system.mem_ctrl.num_reads::total                 1654                       # Number of read requests responded to by this memory
system.mem_ctrl.num_writes::.writebacks            47                       # Number of write requests responded to by this memory
system.mem_ctrl.num_writes::total                  47                       # Number of write requests responded to by this memory
system.mem_ctrl.bw_read::.cpu.inst             614032                       # Total read bandwidth from this memory (bytes/s)
system.mem_ctrl.bw_read::.cpu.data             899543                       # Total read bandwidth from this memory (bytes/s)
system.mem_ctrl.bw_read::total                1513574                       # Total read bandwidth from this memory (bytes/s)
system.mem_ctrl.bw_inst_read::.cpu.inst        614032                       # Instruction read bandwidth from this memory (bytes/s)
system.mem_ctrl.bw_inst_read::total            614032                       # Instruction read bandwidth from this memory (bytes/s)
system.mem_ctrl.bw_write::.writebacks           43010                       # Write bandwidth from this memory (bytes/s)
system.mem_ctrl.bw_write::total                 43010                       # Write bandwidth from this memory (bytes/s)
system.mem_ctrl.bw_total::.writebacks           43010                       # Total bandwidth to/from this memory (bytes/s)
system.mem_ctrl.bw_total::.cpu.inst            614032                       # Total bandwidth to/from this memory (bytes/s)
system.mem_ctrl.bw_total::.cpu.data            899543                       # Total bandwidth to/from this memory (bytes/s)
system.mem_ctrl.bw_total::total               1556584                       # Total bandwidth to/from this memory (bytes/s)
system.mem_ctrl.avgPriority_.writebacks::samples        47.00                       # Average QoS priority value for accepted requests
system.mem_ctrl.avgPriority_.cpu.inst::samples       671.00                       # Average QoS priority value for accepted requests
system.mem_ctrl.avgPriority_.cpu.data::samples       976.00                       # Average QoS priority value for accepted requests
system.mem_ctrl.priorityMinLatency       0.000000018750                       # per QoS priority minimum request to response latency (s)
system.mem_ctrl.priorityMaxLatency       0.000838718500                       # per QoS priority maximum request to response latency (s)
system.mem_ctrl.numReadWriteTurnArounds             1                       # Number of turnarounds from READ to WRITE
system.mem_ctrl.numWriteReadTurnArounds             1                       # Number of turnarounds from WRITE to READ
system.mem_ctrl.numStayReadState                21305                       # Number of times bus staying in READ state
system.mem_ctrl.numStayWriteState                  17                       # Number of times bus staying in WRITE state
system.mem_ctrl.readReqs                         1654                       # Number of read requests accepted
system.mem_ctrl.writeReqs                          47                       # Number of write requests accepted
system.mem_ctrl.readBursts                       1654                       # Number of DRAM read bursts, including those serviced by the write queue
system.mem_ctrl.writeBursts                        47                       # Number of DRAM write bursts, including those merged in the write queue
system.mem_ctrl.servicedByWrQ                       7                       # Number of DRAM read bursts serviced by the write queue
system.mem_ctrl.mergedWrBursts                      0                       # Number of DRAM write bursts merged with an existing one
system.mem_ctrl.neitherReadNorWriteReqs             0                       # Number of requests that are neither read nor write
system.mem_ctrl.perBankRdBursts::0                101                       # Per bank write bursts
system.mem_ctrl.perBankRdBursts::1                 26                       # Per bank write bursts
system.mem_ctrl.perBankRdBursts::2                  6                       # Per bank write bursts
system.mem_ctrl.perBankRdBursts::3                120                       # Per bank write bursts
system.mem_ctrl.perBankRdBursts::4                208                       # Per bank write bursts
system.mem_ctrl.perBankRdBursts::5                 78                       # Per bank write bursts
system.mem_ctrl.perBankRdBursts::6                284                       # Per bank write bursts
system.mem_ctrl.perBankRdBursts::7                161                       # Per bank write bursts
system.mem_ctrl.perBankRdBursts::8                309                       # Per bank write bursts
system.mem_ctrl.perBankRdBursts::9                169                       # Per bank write bursts
system.mem_ctrl.perBankRdBursts::10                44                       # Per bank write bursts
system.mem_ctrl.perBankRdBursts::11                40                       # Per bank write bursts
system.mem_ctrl.perBankRdBursts::12                 9                       # Per bank write bursts
system.mem_ctrl.perBankRdBursts::13                50                       # Per bank write bursts
system.mem_ctrl.perBankRdBursts::14                 7                       # Per bank write bursts
system.mem_ctrl.perBankRdBursts::15                35                       # Per bank write bursts
system.mem_ctrl.perBankWrBursts::0                  0                       # Per bank write bursts
system.mem_ctrl.perBankWrBursts::1                  0                       # Per bank write bursts
system.mem_ctrl.perBankWrBursts::2                  0                       # Per bank write bursts
system.mem_ctrl.perBankWrBursts::3                  0                       # Per bank write bursts
system.mem_ctrl.perBankWrBursts::4                  1                       # Per bank write bursts
system.mem_ctrl.perBankWrBursts::5                  0                       # Per bank write bursts
system.mem_ctrl.perBankWrBursts::6                  2                       # Per bank write bursts
system.mem_ctrl.perBankWrBursts::7                  1                       # Per bank write bursts
system.mem_ctrl.perBankWrBursts::8                 14                       # Per bank write bursts
system.mem_ctrl.perBankWrBursts::9                  0                       # Per bank write bursts
system.mem_ctrl.perBankWrBursts::10                 0                       # Per bank write bursts
system.mem_ctrl.perBankWrBursts::11                 0                       # Per bank write bursts
system.mem_ctrl.perBankWrBursts::12                 0                       # Per bank write bursts
system.mem_ctrl.perBankWrBursts::13                 0                       # Per bank write bursts
system.mem_ctrl.perBankWrBursts::14                 0                       # Per bank write bursts
system.mem_ctrl.perBankWrBursts::15                 0                       # Per bank write bursts
system.mem_ctrl.avgRdQLen                        1.00                       # Average read queue length when enqueuing
system.mem_ctrl.avgWrQLen                       17.04                       # Average write queue length when enqueuing
system.mem_ctrl.totQLat                      11729250                       # Total ticks spent queuing
system.mem_ctrl.totBusLat                     8235000                       # Total ticks spent in databus transfers
system.mem_ctrl.totMemAccLat                 42610500                       # Total ticks spent from burst creation until serviced by the DRAM
system.mem_ctrl.avgQLat                       7121.58                       # Average queueing delay per DRAM burst
system.mem_ctrl.avgBusLat                     5000.00                       # Average bus latency per DRAM burst
system.mem_ctrl.avgMemAccLat                 25871.58                       # Average memory access latency per DRAM burst
system.mem_ctrl.numRdRetry                          0                       # Number of times read queue was full causing retry
system.mem_ctrl.numWrRetry                          0                       # Number of times write queue was full causing retry
system.mem_ctrl.readRowHits                      1301                       # Number of row buffer hits during reads
system.mem_ctrl.writeRowHits                       14                       # Number of row buffer hits during writes
system.mem_ctrl.readRowHitRate                  78.99                       # Row buffer hit rate for reads
system.mem_ctrl.writeRowHitRate                 29.79                       # Row buffer hit rate for writes
system.mem_ctrl.readPktSize::0                      0                       # Read request sizes (log2)
system.mem_ctrl.readPktSize::1                      0                       # Read request sizes (log2)
system.mem_ctrl.readPktSize::2                      0                       # Read request sizes (log2)
system.mem_ctrl.readPktSize::3                      0                       # Read request sizes (log2)
system.mem_ctrl.readPktSize::4                      0                       # Read request sizes (log2)
system.mem_ctrl.readPktSize::5                      0                       # Read request sizes (log2)
system.mem_ctrl.readPktSize::6                   1654                       # Read request sizes (log2)
system.mem_ctrl.writePktSize::0                     0                       # Write request sizes (log2)
system.mem_ctrl.writePktSize::1                     0                       # Write request sizes (log2)
system.mem_ctrl.writePktSize::2                     0                       # Write request sizes (log2)
system.mem_ctrl.writePktSize::3                     0                       # Write request sizes (log2)
system.mem_ctrl.writePktSize::4                     0                       # Write request sizes (log2)
system.mem_ctrl.writePktSize::5                     0                       # Write request sizes (log2)
system.mem_ctrl.writePktSize::6                    47                       # Write request sizes (log2)
system.mem_ctrl.rdQLenPdf::0                     1642                       # What read queue length does an incoming req see
system.mem_ctrl.rdQLenPdf::1                        4                       # What read queue length does an incoming req see
system.mem_ctrl.rdQLenPdf::2                        1                       # What read queue length does an incoming req see
system.mem_ctrl.rdQLenPdf::3                        0                       # What read queue length does an incoming req see
system.mem_ctrl.rdQLenPdf::4                        0                       # What read queue length does an incoming req see
system.mem_ctrl.rdQLenPdf::5                        0                       # What read queue length does an incoming req see
system.mem_ctrl.rdQLenPdf::6                        0                       # What read queue length does an incoming req see
system.mem_ctrl.rdQLenPdf::7                        0                       # What read queue length does an incoming req see
system.mem_ctrl.rdQLenPdf::8                        0                       # What read queue length does an incoming req see
system.mem_ctrl.rdQLenPdf::9                        0                       # What read queue length does an incoming req see
system.mem_ctrl.rdQLenPdf::10                       0                       # What read queue length does an incoming req see
system.mem_ctrl.rdQLenPdf::11                       0                       # What read queue length does an incoming req see
system.mem_ctrl.rdQLenPdf::12                       0                       # What read queue length does an incoming req see
system.mem_ctrl.rdQLenPdf::13                       0                       # What read queue length does an incoming req see
system.mem_ctrl.rdQLenPdf::14                       0                       # What read queue length does an incoming req see
system.mem_ctrl.rdQLenPdf::15                       0                       # What read queue length does an incoming req see
system.mem_ctrl.rdQLenPdf::16                       0                       # What read queue length does an incoming req see
system.mem_ctrl.rdQLenPdf::17                       0                       # What read queue length does an incoming req see
system.mem_ctrl.rdQLenPdf::18                       0                       # What read queue length does an incoming req see
system.mem_ctrl.rdQLenPdf::19                       0                       # What read queue length does an incoming req see
system.mem_ctrl.rdQLenPdf::20                       0                       # What read queue length does an incoming req see
system.mem_ctrl.rdQLenPdf::21                       0                       # What read queue length does an incoming req see
system.mem_ctrl.rdQLenPdf::22                       0                       # What read queue length does an incoming req see
system.mem_ctrl.rdQLenPdf::23                       0                       # What read queue length does an incoming req see
system.mem_ctrl.rdQLenPdf::24                       0                       # What read queue length does an incoming req see
system.mem_ctrl.rdQLenPdf::25                       0                       # What read queue length does an incoming req see
system.mem_ctrl.rdQLenPdf::26                       0                       # What read queue length does an incoming req see
system.mem_ctrl.rdQLenPdf::27                       0                       # What read queue length does an incoming req see
system.mem_ctrl.rdQLenPdf::28                       0                       # What read queue length does an incoming req see
system.mem_ctrl.rdQLenPdf::29                       0                       # What read queue length does an incoming req see
system.mem_ctrl.rdQLenPdf::30                       0                       # What read queue length does an incoming req see
system.mem_ctrl.rdQLenPdf::31                       0                       # What read queue length does an incoming req see
system.mem_ctrl.wrQLenPdf::0                        1                       # What write queue length does an incoming req see
system.mem_ctrl.wrQLenPdf::1                        1                       # What write queue length does an incoming req see
system.mem_ctrl.wrQLenPdf::2                        1                       # What write queue length does an incoming req see
system.mem_ctrl.wrQLenPdf::3                        1                       # What write queue length does an incoming req see
system.mem_ctrl.wrQLenPdf::4                        1                       # What write queue length does an incoming req see
system.mem_ctrl.wrQLenPdf::5                        1                       # What write queue length does an incoming req see
system.mem_ctrl.wrQLenPdf::6                        1                       # What write queue length does an incoming req see
system.mem_ctrl.wrQLenPdf::7                        1                       # What write queue length does an incoming req see
system.mem_ctrl.wrQLenPdf::8                        1                       # What write queue length does an incoming req see
system.mem_ctrl.wrQLenPdf::9                        1                       # What write queue length does an incoming req see
system.mem_ctrl.wrQLenPdf::10                       1                       # What write queue length does an incoming req see
system.mem_ctrl.wrQLenPdf::11                       1                       # What write queue length does an incoming req see
system.mem_ctrl.wrQLenPdf::12                       1                       # What write queue length does an incoming req see
system.mem_ctrl.wrQLenPdf::13                       1                       # What write queue length does an incoming req see
system.mem_ctrl.wrQLenPdf::14                       1                       # What write queue length does an incoming req see
system.mem_ctrl.wrQLenPdf::15                       2                       # What write queue length does an incoming req see
system.mem_ctrl.wrQLenPdf::16                       2                       # What write queue length does an incoming req see
system.mem_ctrl.wrQLenPdf::17                       2                       # What write queue length does an incoming req see
system.mem_ctrl.wrQLenPdf::18                       2                       # What write queue length does an incoming req see
system.mem_ctrl.wrQLenPdf::19                       2                       # What write queue length does an incoming req see
system.mem_ctrl.wrQLenPdf::20                       2                       # What write queue length does an incoming req see
system.mem_ctrl.wrQLenPdf::21                       2                       # What write queue length does an incoming req see
system.mem_ctrl.wrQLenPdf::22                       2                       # What write queue length does an incoming req see
system.mem_ctrl.wrQLenPdf::23                       2                       # What write queue length does an incoming req see
system.mem_ctrl.wrQLenPdf::24                       2                       # What write queue length does an incoming req see
system.mem_ctrl.wrQLenPdf::25                       2                       # What write queue length does an incoming req see
system.mem_ctrl.wrQLenPdf::26                       2                       # What write queue length does an incoming req see
system.mem_ctrl.wrQLenPdf::27                       2                       # What write queue length does an incoming req see
system.mem_ctrl.wrQLenPdf::28                       2                       # What write queue length does an incoming req see
system.mem_ctrl.wrQLenPdf::29                       1                       # What write queue length does an incoming req see
system.mem_ctrl.wrQLenPdf::30                       1                       # What write queue length does an incoming req see
system.mem_ctrl.wrQLenPdf::31                       1                       # What write queue length does an incoming req see
system.mem_ctrl.wrQLenPdf::32                       1                       # What write queue length does an incoming req see
system.mem_ctrl.wrQLenPdf::33                       0                       # What write queue length does an incoming req see
system.mem_ctrl.wrQLenPdf::34                       0                       # What write queue length does an incoming req see
system.mem_ctrl.wrQLenPdf::35                       0                       # What write queue length does an incoming req see
system.mem_ctrl.wrQLenPdf::36                       0                       # What write queue length does an incoming req see
system.mem_ctrl.wrQLenPdf::37                       0                       # What write queue length does an incoming req see
system.mem_ctrl.wrQLenPdf::38                       0                       # What write queue length does an incoming req see
system.mem_ctrl.wrQLenPdf::39                       0                       # What write queue length does an incoming req see
system.mem_ctrl.wrQLenPdf::40                       0                       # What write queue length does an incoming req see
system.mem_ctrl.wrQLenPdf::41                       0                       # What write queue length does an incoming req see
system.mem_ctrl.wrQLenPdf::42                       0                       # What write queue length does an incoming req see
system.mem_ctrl.wrQLenPdf::43                       0                       # What write queue length does an incoming req see
system.mem_ctrl.wrQLenPdf::44                       0                       # What write queue length does an incoming req see
system.mem_ctrl.wrQLenPdf::45                       0                       # What write queue length does an incoming req see
system.mem_ctrl.wrQLenPdf::46                       0                       # What write queue length does an incoming req see
system.mem_ctrl.wrQLenPdf::47                       0                       # What write queue length does an incoming req see
system.mem_ctrl.wrQLenPdf::48                       0                       # What write queue length does an incoming req see
system.mem_ctrl.wrQLenPdf::49                       0                       # What write queue length does an incoming req see
system.mem_ctrl.wrQLenPdf::50                       0                       # What write queue length does an incoming req see
system.mem_ctrl.wrQLenPdf::51                       0                       # What write queue length does an incoming req see
system.mem_ctrl.wrQLenPdf::52                       0                       # What write queue length does an incoming req see
system.mem_ctrl.wrQLenPdf::53                       0                       # What write queue length does an incoming req see
system.mem_ctrl.wrQLenPdf::54                       0                       # What write queue length does an incoming req see
system.mem_ctrl.wrQLenPdf::55                       0                       # What write queue length does an incoming req see
system.mem_ctrl.wrQLenPdf::56                       0                       # What write queue length does an incoming req see
system.mem_ctrl.wrQLenPdf::57                       0                       # What write queue length does an incoming req see
system.mem_ctrl.wrQLenPdf::58                       0                       # What write queue length does an incoming req see
system.mem_ctrl.wrQLenPdf::59                       0                       # What write queue length does an incoming req see
system.mem_ctrl.wrQLenPdf::60                       0                       # What write queue length does an incoming req see
system.mem_ctrl.wrQLenPdf::61                       0                       # What write queue length does an incoming req see
system.mem_ctrl.wrQLenPdf::62                       0                       # What write queue length does an incoming req see
system.mem_ctrl.wrQLenPdf::63                       0                       # What write queue length does an incoming req see
system.mem_ctrl.bytesPerActivate::samples          348                       # Bytes accessed per row activation
system.mem_ctrl.bytesPerActivate::mean     304.551724                       # Bytes accessed per row activation
system.mem_ctrl.bytesPerActivate::gmean    191.332372                       # Bytes accessed per row activation
system.mem_ctrl.bytesPerActivate::stdev    302.960256                       # Bytes accessed per row activation
system.mem_ctrl.bytesPerActivate::0-127           115     33.05%     33.05% # Bytes accessed per row activation
system.mem_ctrl.bytesPerActivate::128-255           82     23.56%     56.61% # Bytes accessed per row activation
system.mem_ctrl.bytesPerActivate::256-383           53     15.23%     71.84% # Bytes accessed per row activation
system.mem_ctrl.bytesPerActivate::384-511           26      7.47%     79.31% # Bytes accessed per row activation
system.mem_ctrl.bytesPerActivate::512-639           14      4.02%     83.33% # Bytes accessed per row activation
system.mem_ctrl.bytesPerActivate::640-767           11      3.16%     86.49% # Bytes accessed per row activation
system.mem_ctrl.bytesPerActivate::768-895            9      2.59%     89.08% # Bytes accessed per row activation
system.mem_ctrl.bytesPerActivate::896-1023            9      2.59%     91.67% # Bytes accessed per row activation
system.mem_ctrl.bytesPerActivate::1024-1151           29      8.33%    100.00% # Bytes accessed per row activation
system.mem_ctrl.bytesPerActivate::total           348                       # Bytes accessed per row activation
system.mem_ctrl.rdPerTurnAround::samples            1                       # Reads before turning the bus around for writes
system.mem_ctrl.rdPerTurnAround::mean            1350                       # Reads before turning the bus around for writes
system.mem_ctrl.rdPerTurnAround::gmean    1350.000000                       # Reads before turning the bus around for writes
system.mem_ctrl.rdPerTurnAround::stdev            nan                       # Reads before turning the bus around for writes
system.mem_ctrl.rdPerTurnAround::1344-1407            1    100.00%    100.00% # Reads before turning the bus around for writes
system.mem_ctrl.rdPerTurnAround::total              1                       # Reads before turning the bus around for writes
system.mem_ctrl.wrPerTurnAround::samples            1                       # Writes before turning the bus around for reads
system.mem_ctrl.wrPerTurnAround::mean              18                       # Writes before turning the bus around for reads
system.mem_ctrl.wrPerTurnAround::gmean      18.000000                       # Writes before turning the bus around for reads
system.mem_ctrl.wrPerTurnAround::stdev            nan                       # Writes before turning the bus around for reads
system.mem_ctrl.wrPerTurnAround::18                 1    100.00%    100.00% # Writes before turning the bus around for reads
system.mem_ctrl.wrPerTurnAround::total              1                       # Writes before turning the bus around for reads
system.mem_ctrl.bytesReadDRAM                  105408                       # Total number of bytes read from DRAM
system.mem_ctrl.bytesReadWrQ                      448                       # Total number of bytes read from write queue
system.mem_ctrl.bytesWritten                     1152                       # Total number of bytes written to DRAM
system.mem_ctrl.bytesReadSys                   105856                       # Total read bytes from the system interface side
system.mem_ctrl.bytesWrittenSys                  3008                       # Total written bytes from the system interface side
system.mem_ctrl.avgRdBW                          1.51                       # Average DRAM read bandwidth in MiByte/s
system.mem_ctrl.avgWrBW                          0.02                       # Average achieved write bandwidth in MiByte/s
system.mem_ctrl.avgRdBWSys                       1.51                       # Average system read bandwidth in MiByte/s
system.mem_ctrl.avgWrBWSys                       0.04                       # Average system write bandwidth in MiByte/s
system.mem_ctrl.peakBW                       12800.00                       # Theoretical peak bandwidth in MiByte/s
system.mem_ctrl.busUtil                          0.01                       # Data bus utilization in percentage
system.mem_ctrl.busUtilRead                      0.01                       # Data bus utilization in percentage for reads
system.mem_ctrl.busUtilWrite                     0.00                       # Data bus utilization in percentage for writes
system.mem_ctrl.totGap                    69937648000                       # Total gap between requests
system.mem_ctrl.avgGap                    41115607.29                       # Average gap between requests
system.mem_ctrl.masterReadBytes::.cpu.inst        42944                       # Per-master bytes read from memory
system.mem_ctrl.masterReadBytes::.cpu.data        62464                       # Per-master bytes read from memory
system.mem_ctrl.masterWriteBytes::.writebacks         1152                       # Per-master bytes write to memory
system.mem_ctrl.masterReadRate::.cpu.inst 614031.579588088440                       # Per-master bytes read from memory rate (Bytes/sec)
system.mem_ctrl.masterReadRate::.cpu.data 893136.843037219485                       # Per-master bytes read from memory rate (Bytes/sec)
system.mem_ctrl.masterWriteRate::.writebacks 16471.786039620853                       # Per-master bytes write to memory rate (Bytes/sec)
system.mem_ctrl.masterReadAccesses::.cpu.inst          671                       # Per-master read serviced memory accesses
system.mem_ctrl.masterReadAccesses::.cpu.data          983                       # Per-master read serviced memory accesses
system.mem_ctrl.masterWriteAccesses::.writebacks           47                       # Per-master write serviced memory accesses
system.mem_ctrl.masterReadTotalLat::.cpu.inst     16861250                       # Per-master read total memory access latency
system.mem_ctrl.masterReadTotalLat::.cpu.data     25749250                       # Per-master read total memory access latency
system.mem_ctrl.masterWriteTotalLat::.writebacks   6473087000                       # Per-master write total memory access latency
system.mem_ctrl.masterReadAvgLat::.cpu.inst     25128.54                       # Per-master read average memory access latency
system.mem_ctrl.masterReadAvgLat::.cpu.data     26194.56                       # Per-master read average memory access latency
system.mem_ctrl.masterWriteAvgLat::.writebacks 137725255.32                       # Per-master write average memory access latency
system.mem_ctrl.pageHitRate                     77.63                       # Row buffer hit rate, read and write combined
system.mem_ctrl.rank1.actEnergy                921060                       # Energy for activate commands per rank (pJ)
system.mem_ctrl.rank1.preEnergy                489555                       # Energy for precharge commands per rank (pJ)
system.mem_ctrl.rank1.readEnergy              4733820                       # Energy for read commands per rank (pJ)
system.mem_ctrl.rank1.writeEnergy               73080                       # Energy for write commands per rank (pJ)
system.mem_ctrl.rank1.refreshEnergy      5520696480.000001                       # Energy for refresh commands per rank (pJ)
system.mem_ctrl.rank1.actBackEnergy        1142340420                       # Energy for active background per rank (pJ)
system.mem_ctrl.rank1.preBackEnergy       25894133280                       # Energy for precharge background per rank (pJ)
system.mem_ctrl.rank1.actPowerDownEnergy            0                       # Energy for active power-down per rank (pJ)
system.mem_ctrl.rank1.prePowerDownEnergy            0                       # Energy for precharge power-down per rank (pJ)
system.mem_ctrl.rank1.selfRefreshEnergy             0                       # Energy for self refresh per rank (pJ)
system.mem_ctrl.rank1.totalEnergy         32563387695                       # Total energy per rank (pJ)
system.mem_ctrl.rank1.averagePower         465.605169                       # Core power per rank (mW)
system.mem_ctrl.rank1.totalIdleTime                 0                       # Total Idle time Per DRAM Rank
system.mem_ctrl.rank1.memoryStateTime::IDLE  67308271750                       # Time in different power states
system.mem_ctrl.rank1.memoryStateTime::REF   2335320000                       # Time in different power states
system.mem_ctrl.rank1.memoryStateTime::SREF            0                       # Time in different power states
system.mem_ctrl.rank1.memoryStateTime::PRE_PDN            0                       # Time in different power states
system.mem_ctrl.rank1.memoryStateTime::ACT    294179250                       # Time in different power states
system.mem_ctrl.rank1.memoryStateTime::ACT_PDN            0                       # Time in different power states
system.mem_ctrl.rank0.actEnergy               1577940                       # Energy for activate commands per rank (pJ)
system.mem_ctrl.rank0.preEnergy                831105                       # Energy for precharge commands per rank (pJ)
system.mem_ctrl.rank0.readEnergy              7025760                       # Energy for read commands per rank (pJ)
system.mem_ctrl.rank0.writeEnergy               20880                       # Energy for write commands per rank (pJ)
system.mem_ctrl.rank0.refreshEnergy      5520696480.000001                       # Energy for refresh commands per rank (pJ)
system.mem_ctrl.rank0.actBackEnergy        1095388380                       # Energy for active background per rank (pJ)
system.mem_ctrl.rank0.preBackEnergy       25933671840                       # Energy for precharge background per rank (pJ)
system.mem_ctrl.rank0.actPowerDownEnergy            0                       # Energy for active power-down per rank (pJ)
system.mem_ctrl.rank0.prePowerDownEnergy            0                       # Energy for precharge power-down per rank (pJ)
system.mem_ctrl.rank0.selfRefreshEnergy             0                       # Energy for self refresh per rank (pJ)
system.mem_ctrl.rank0.totalEnergy         32559212385                       # Total energy per rank (pJ)
system.mem_ctrl.rank0.averagePower         465.545469                       # Core power per rank (mW)
system.mem_ctrl.rank0.totalIdleTime                 0                       # Total Idle time Per DRAM Rank
system.mem_ctrl.rank0.memoryStateTime::IDLE  67411545250                       # Time in different power states
system.mem_ctrl.rank0.memoryStateTime::REF   2335320000                       # Time in different power states
system.mem_ctrl.rank0.memoryStateTime::SREF            0                       # Time in different power states
system.mem_ctrl.rank0.memoryStateTime::PRE_PDN            0                       # Time in different power states
system.mem_ctrl.rank0.memoryStateTime::ACT    190905750                       # Time in different power states
system.mem_ctrl.rank0.memoryStateTime::ACT_PDN            0                       # Time in different power states
system.mem_ctrl.power_state.pwrStateResidencyTicks::UNDEFINED  69937771000                       # Cumulative time (in ticks) in various power states

---------- End Simulation Statistics   ----------
